<?xml version="1.0" encoding="UTF-8"?>

<!-- generated on 2025-08-18 10:53:39.199370 by randomTrips.py v1_22_0+0002-63e50f52594
<configuration>
    <net-file value="phuquoc.net.xml"/>
    <output-trip-file value="phuquoc-demo.rou.xml"/>
    <trip-attributes value="type=&quot;td_0&quot; departLane=&quot;best&quot; departSpeed=&quot;max&quot; departPos=&quot;random&quot;"/>
    <lanes value="True"/>
    <end value="1200.0"/>
    <insertion-rate value="6000.0"/>
</configuration>
-->

<routes xmlns:xsi="http://www.w3.org/2001/XMLSchema-instance" xsi:noNamespaceSchemaLocation="http://sumo.dlr.de/xsd/routes_file.xsd">
    <trip id="0" depart="0.00" from="721126897#2" to="-1135316109" type="td_0" departLane="best" departSpeed="max" departPos="random"/>
    <trip id="1" depart="0.60" from="100954163#8" to="-723990057#3" type="td_0" departLane="best" departSpeed="max" departPos="random"/>
    <trip id="2" depart="1.20" from="721131937#2" to="721131934#4" type="td_0" departLane="best" departSpeed="max" departPos="random"/>
    <trip id="3" depart="1.80" from="721131967" to="-155315693#2" type="td_0" departLane="best" departSpeed="max" departPos="random"/>
    <trip id="4" depart="2.40" from="1307054560#0" to="-1149578943" type="td_0" departLane="best" departSpeed="max" departPos="random"/>
    <trip id="5" depart="3.00" from="-723990057#2" to="155315719#1" type="td_0" departLane="best" departSpeed="max" departPos="random"/>
    <trip id="6" depart="3.60" from="-1149578009" to="-721131962" type="td_0" departLane="best" departSpeed="max" departPos="random"/>
    <trip id="7" depart="4.20" from="721126897#3" to="31905195#2" type="td_0" departLane="best" departSpeed="max" departPos="random"/>
    <trip id="8" depart="4.80" from="-723990057#3" to="591704635#0" type="td_0" departLane="best" departSpeed="max" departPos="random"/>
    <trip id="9" depart="5.40" from="721131946#6" to="-100954129#4" type="td_0" departLane="best" departSpeed="max" departPos="random"/>
    <trip id="10" depart="6.00" from="721131946#5" to="721131937#1" type="td_0" departLane="best" departSpeed="max" departPos="random"/>
    <trip id="11" depart="6.60" from="1149579536#0" to="-442885101#1" type="td_0" departLane="best" departSpeed="max" departPos="random"/>
    <trip id="12" depart="7.20" from="778021896" to="1149579536#0" type="td_0" departLane="best" departSpeed="max" departPos="random"/>
    <trip id="13" depart="7.80" from="-155315695#4" to="-155315695#3" type="td_0" departLane="best" departSpeed="max" departPos="random"/>
    <trip id="14" depart="8.40" from="721131960#1" to="708790255#0" type="td_0" departLane="best" departSpeed="max" departPos="random"/>
    <trip id="15" depart="9.00" from="721131946#6" to="721131937#5" type="td_0" departLane="best" departSpeed="max" departPos="random"/>
    <trip id="16" depart="9.60" from="218100268" to="850817949" type="td_0" departLane="best" departSpeed="max" departPos="random"/>
    <trip id="17" depart="10.20" from="1149579537#4" to="350424622#2" type="td_0" departLane="best" departSpeed="max" departPos="random"/>
    <trip id="18" depart="10.80" from="721131954#0" to="721126897#13" type="td_0" departLane="best" departSpeed="max" departPos="random"/>
    <trip id="19" depart="11.40" from="721131960#5" to="442885355#2" type="td_0" departLane="best" departSpeed="max" departPos="random"/>
    <trip id="20" depart="12.00" from="721131937#0" to="-1149580308" type="td_0" departLane="best" departSpeed="max" departPos="random"/>
    <trip id="21" depart="12.60" from="-723990057#7" to="1119166765#1" type="td_0" departLane="best" departSpeed="max" departPos="random"/>
    <trip id="22" depart="13.20" from="-155315693#8" to="-766326315" type="td_0" departLane="best" departSpeed="max" departPos="random"/>
    <trip id="23" depart="13.80" from="-155315719#2" to="1056899464#1" type="td_0" departLane="best" departSpeed="max" departPos="random"/>
    <trip id="24" depart="14.40" from="721126897#15" to="1149579537#1" type="td_0" departLane="best" departSpeed="max" departPos="random"/>
    <trip id="25" depart="15.00" from="1149579537#1" to="-722466950" type="td_0" departLane="best" departSpeed="max" departPos="random"/>
    <trip id="26" depart="15.60" from="100954129#1" to="723990057#4" type="td_0" departLane="best" departSpeed="max" departPos="random"/>
    <trip id="27" depart="16.20" from="721126897#3" to="721126897#12" type="td_0" departLane="best" departSpeed="max" departPos="random"/>
    <trip id="28" depart="16.80" from="-721131931#1" to="721131937#5" type="td_0" departLane="best" departSpeed="max" departPos="random"/>
    <trip id="29" depart="17.40" from="-442885359#2" to="1149580107#0" type="td_0" departLane="best" departSpeed="max" departPos="random"/>
    <trip id="30" depart="18.00" from="857958820#1" to="721126897#4" type="td_0" departLane="best" departSpeed="max" departPos="random"/>
    <trip id="31" depart="18.60" from="31905214" to="721131934#6" type="td_0" departLane="best" departSpeed="max" departPos="random"/>
    <trip id="32" depart="19.20" from="721131958#1" to="721131946#15" type="td_0" departLane="best" departSpeed="max" departPos="random"/>
    <trip id="33" depart="19.80" from="-723990057#7" to="-1149578944" type="td_0" departLane="best" departSpeed="max" departPos="random"/>
    <trip id="34" depart="20.40" from="1119166765#6" to="100954129#2" type="td_0" departLane="best" departSpeed="max" departPos="random"/>
    <trip id="35" depart="21.00" from="-722466951" to="723990058" type="td_0" departLane="best" departSpeed="max" departPos="random"/>
    <trip id="36" depart="21.60" from="721131963#1" to="1149578360#0" type="td_0" departLane="best" departSpeed="max" departPos="random"/>
    <trip id="37" depart="22.20" from="721126897#4" to="1149580107#4" type="td_0" departLane="best" departSpeed="max" departPos="random"/>
    <trip id="38" depart="22.80" from="722464595" to="152227691#8" type="td_0" departLane="best" departSpeed="max" departPos="random"/>
    <trip id="39" depart="23.40" from="100954129#0" to="-850817946" type="td_0" departLane="best" departSpeed="max" departPos="random"/>
    <trip id="40" depart="24.00" from="350424623#0" to="-934270764" type="td_0" departLane="best" departSpeed="max" departPos="random"/>
    <trip id="41" depart="24.60" from="442885101#2" to="722464592" type="td_0" departLane="best" departSpeed="max" departPos="random"/>
    <trip id="42" depart="25.20" from="1149580107#4" to="-723990056" type="td_0" departLane="best" departSpeed="max" departPos="random"/>
    <trip id="43" depart="25.80" from="934254484#1" to="155315719#3" type="td_0" departLane="best" departSpeed="max" departPos="random"/>
    <trip id="44" depart="26.40" from="-155315695#4" to="-1149580308" type="td_0" departLane="best" departSpeed="max" departPos="random"/>
    <trip id="45" depart="27.00" from="-155775198#4" to="721126897#15" type="td_0" departLane="best" departSpeed="max" departPos="random"/>
    <trip id="46" depart="27.60" from="721131946#2" to="152227691#0" type="td_0" departLane="best" departSpeed="max" departPos="random"/>
    <trip id="47" depart="28.20" from="-155315678#4" to="1149580107#0" type="td_0" departLane="best" departSpeed="max" departPos="random"/>
    <trip id="48" depart="28.80" from="934254484#1" to="218100268" type="td_0" departLane="best" departSpeed="max" departPos="random"/>
    <trip id="49" depart="29.40" from="850817946" to="721131963#0" type="td_0" departLane="best" departSpeed="max" departPos="random"/>
    <trip id="50" depart="30.00" from="-100954245#13" to="721131937#2" type="td_0" departLane="best" departSpeed="max" departPos="random"/>
    <trip id="51" depart="30.60" from="721131934#1" to="31905181#4" type="td_0" departLane="best" departSpeed="max" departPos="random"/>
    <trip id="52" depart="31.20" from="100954129#1" to="721126897#4" type="td_0" departLane="best" departSpeed="max" departPos="random"/>
    <trip id="53" depart="31.80" from="-155775198#5" to="152227691#12" type="td_0" departLane="best" departSpeed="max" departPos="random"/>
    <trip id="54" depart="32.40" from="152227691#4" to="766326334" type="td_0" departLane="best" departSpeed="max" departPos="random"/>
    <trip id="55" depart="33.00" from="721131963#1" to="100954129#0" type="td_0" departLane="best" departSpeed="max" departPos="random"/>
    <trip id="56" depart="33.60" from="155315694#0" to="-721131933#1" type="td_0" departLane="best" departSpeed="max" departPos="random"/>
    <trip id="57" depart="34.20" from="722464593#1" to="721131963#3" type="td_0" departLane="best" departSpeed="max" departPos="random"/>
    <trip id="58" depart="34.80" from="1119166765#1" to="721126897#4" type="td_0" departLane="best" departSpeed="max" departPos="random"/>
    <trip id="59" depart="35.40" from="592032565" to="-442885101#1" type="td_0" departLane="best" departSpeed="max" departPos="random"/>
    <trip id="60" depart="36.00" from="721131938" to="31905190#0" type="td_0" departLane="best" departSpeed="max" departPos="random"/>
    <trip id="61" depart="36.60" from="721131946#11" to="271412010" type="td_0" departLane="best" departSpeed="max" departPos="random"/>
    <trip id="62" depart="37.20" from="-100954129#0" to="1149578360#2" type="td_0" departLane="best" departSpeed="max" departPos="random"/>
    <trip id="63" depart="37.80" from="-1117528627#2" to="723990056" type="td_0" departLane="best" departSpeed="max" departPos="random"/>
    <trip id="64" depart="38.40" from="721131963#1" to="721131958#1" type="td_0" departLane="best" departSpeed="max" departPos="random"/>
    <trip id="65" depart="39.00" from="1119166765#3" to="-1307054560#5" type="td_0" departLane="best" departSpeed="max" departPos="random"/>
    <trip id="66" depart="39.60" from="721131963#1" to="724005148" type="td_0" departLane="best" departSpeed="max" departPos="random"/>
    <trip id="67" depart="40.20" from="-155315695#0" to="155315688#1" type="td_0" departLane="best" departSpeed="max" departPos="random"/>
    <trip id="68" depart="40.80" from="-155315682" to="721131943" type="td_0" departLane="best" departSpeed="max" departPos="random"/>
    <trip id="69" depart="41.40" from="721131940" to="-271412010" type="td_0" departLane="best" departSpeed="max" departPos="random"/>
    <trip id="70" depart="42.00" from="152227691#9" to="350424622#0" type="td_0" departLane="best" departSpeed="max" departPos="random"/>
    <trip id="71" depart="42.60" from="100954129#0" to="721131963#3" type="td_0" departLane="best" departSpeed="max" departPos="random"/>
    <trip id="72" depart="43.20" from="152227686#1" to="-722466951" type="td_0" departLane="best" departSpeed="max" departPos="random"/>
    <trip id="73" depart="43.80" from="271412010" to="721131937#5" type="td_0" departLane="best" departSpeed="max" departPos="random"/>
    <trip id="74" depart="44.40" from="-722464595" to="1149576119" type="td_0" departLane="best" departSpeed="max" departPos="random"/>
    <trip id="75" depart="45.00" from="934254484#0" to="721126897#7" type="td_0" departLane="best" departSpeed="max" departPos="random"/>
    <trip id="76" depart="45.60" from="152227691#10" to="155775198#4" type="td_0" departLane="best" departSpeed="max" departPos="random"/>
    <trip id="77" depart="46.20" from="-205021436#1" to="-723990057#4" type="td_0" departLane="best" departSpeed="max" departPos="random"/>
    <trip id="78" depart="46.80" from="1149579535" to="591704635#0" type="td_0" departLane="best" departSpeed="max" departPos="random"/>
    <trip id="79" depart="47.40" from="-724005148" to="-723990057#2" type="td_0" departLane="best" departSpeed="max" departPos="random"/>
    <trip id="80" depart="48.00" from="-155315682" to="721126897#3" type="td_0" departLane="best" departSpeed="max" departPos="random"/>
    <trip id="81" depart="48.60" from="-723990057#7" to="722464593#1" type="td_0" departLane="best" departSpeed="max" departPos="random"/>
    <trip id="82" depart="49.20" from="721131960#5" to="-152227697#3" type="td_0" departLane="best" departSpeed="max" departPos="random"/>
    <trip id="83" depart="49.80" from="-827332718" to="721131934#1" type="td_0" departLane="best" departSpeed="max" departPos="random"/>
    <trip id="84" depart="50.40" from="-723990055#4" to="-31905181#3" type="td_0" departLane="best" departSpeed="max" departPos="random"/>
    <trip id="85" depart="51.00" from="723990057#1" to="442885101#1" type="td_0" departLane="best" departSpeed="max" departPos="random"/>
    <trip id="86" depart="51.60" from="152227691#9" to="721131946#3" type="td_0" departLane="best" departSpeed="max" departPos="random"/>
    <trip id="87" depart="52.20" from="721131946#6" to="-721131943" type="td_0" departLane="best" departSpeed="max" departPos="random"/>
    <trip id="88" depart="52.80" from="-155315719#1" to="152227691#12" type="td_0" departLane="best" departSpeed="max" departPos="random"/>
    <trip id="89" depart="53.40" from="152227686#1" to="152227697#3" type="td_0" departLane="best" departSpeed="max" departPos="random"/>
    <trip id="90" depart="54.00" from="721131937#13" to="721131934#3" type="td_0" departLane="best" departSpeed="max" departPos="random"/>
    <trip id="91" depart="54.60" from="857958820#0" to="-155315695#4" type="td_0" departLane="best" departSpeed="max" departPos="random"/>
    <trip id="92" depart="55.20" from="1149580107#4" to="1149579536#0" type="td_0" departLane="best" departSpeed="max" departPos="random"/>
    <trip id="93" depart="55.80" from="721131960#5" to="-850817949" type="td_0" departLane="best" departSpeed="max" departPos="random"/>
    <trip id="94" depart="56.40" from="-721131953" to="152227691#5" type="td_0" departLane="best" departSpeed="max" departPos="random"/>
    <trip id="95" depart="57.00" from="1307054560#0" to="1056899464#1" type="td_0" departLane="best" departSpeed="max" departPos="random"/>
    <trip id="96" depart="57.60" from="-850817949" to="722466951" type="td_0" departLane="best" departSpeed="max" departPos="random"/>
    <trip id="97" depart="58.20" from="152227691#12" to="721131963#0" type="td_0" departLane="best" departSpeed="max" departPos="random"/>
    <trip id="98" depart="58.80" from="31905195#1" to="-1149582046#3" type="td_0" departLane="best" departSpeed="max" departPos="random"/>
    <trip id="99" depart="59.40" from="934254484#2" to="721131960#1" type="td_0" departLane="best" departSpeed="max" departPos="random"/>
    <trip id="100" depart="60.00" from="850817945" to="723990054" type="td_0" departLane="best" departSpeed="max" departPos="random"/>
    <trip id="101" depart="60.60" from="721131960#1" to="-442885359#0" type="td_0" departLane="best" departSpeed="max" departPos="random"/>
    <trip id="102" depart="61.20" from="155315678#0" to="-723990054" type="td_0" departLane="best" departSpeed="max" departPos="random"/>
    <trip id="103" depart="61.80" from="1149580107#4" to="-1307054560#5" type="td_0" departLane="best" departSpeed="max" departPos="random"/>
    <trip id="104" depart="62.40" from="1149579537#4" to="857958820#0" type="td_0" departLane="best" departSpeed="max" departPos="random"/>
    <trip id="105" depart="63.00" from="100954129#0" to="721131946#3" type="td_0" departLane="best" departSpeed="max" departPos="random"/>
    <trip id="106" depart="63.60" from="152227691#4" to="152227691#1" type="td_0" departLane="best" departSpeed="max" departPos="random"/>
    <trip id="107" depart="64.20" from="778021896" to="934254484#0" type="td_0" departLane="best" departSpeed="max" departPos="random"/>
    <trip id="108" depart="64.80" from="31905214" to="721131937#13" type="td_0" departLane="best" departSpeed="max" departPos="random"/>
    <trip id="109" depart="65.40" from="-442885355#1" to="1119166765#3" type="td_0" departLane="best" departSpeed="max" departPos="random"/>
    <trip id="110" depart="66.00" from="850817945" to="442885359#0" type="td_0" departLane="best" departSpeed="max" departPos="random"/>
    <trip id="111" depart="66.60" from="31905181#1" to="721131937#9" type="td_0" departLane="best" departSpeed="max" departPos="random"/>
    <trip id="112" depart="67.20" from="-152227686#1" to="482169086#0" type="td_0" departLane="best" departSpeed="max" departPos="random"/>
    <trip id="113" depart="67.80" from="155315694#3" to="721131961" type="td_0" departLane="best" departSpeed="max" departPos="random"/>
    <trip id="114" depart="68.40" from="-442885355#2" to="827332719" type="td_0" departLane="best" departSpeed="max" departPos="random"/>
    <trip id="115" depart="69.00" from="-155315693#8" to="-721131941" type="td_0" departLane="best" departSpeed="max" departPos="random"/>
    <trip id="116" depart="69.60" from="591704635#0" to="721131934#3" type="td_0" departLane="best" departSpeed="max" departPos="random"/>
    <trip id="117" depart="70.20" from="-766326334.90" to="-155775200#1" type="td_0" departLane="best" departSpeed="max" departPos="random"/>
    <trip id="118" depart="70.80" from="721131966#0" to="-850817946" type="td_0" departLane="best" departSpeed="max" departPos="random"/>
    <trip id="119" depart="71.40" from="482169086#0" to="721126897#14" type="td_0" departLane="best" departSpeed="max" departPos="random"/>
    <trip id="120" depart="72.00" from="1270367191#2" to="482169086#0" type="td_0" departLane="best" departSpeed="max" departPos="random"/>
    <trip id="121" depart="72.60" from="155775198#1" to="723990057#3" type="td_0" departLane="best" departSpeed="max" departPos="random"/>
    <trip id="122" depart="73.20" from="-722464597#2" to="721131937#13" type="td_0" departLane="best" departSpeed="max" departPos="random"/>
    <trip id="123" depart="73.80" from="-827332718" to="1149580107#4" type="td_0" departLane="best" departSpeed="max" departPos="random"/>
    <trip id="124" depart="74.40" from="721131931#1" to="1119166765#3" type="td_0" departLane="best" departSpeed="max" departPos="random"/>
    <trip id="125" depart="75.00" from="1119166765#6" to="721131939" type="td_0" departLane="best" departSpeed="max" departPos="random"/>
    <trip id="126" depart="75.60" from="-155315683" to="152227691#7" type="td_0" departLane="best" departSpeed="max" departPos="random"/>
    <trip id="127" depart="76.20" from="934254484#2" to="934254484#1" type="td_0" departLane="best" departSpeed="max" departPos="random"/>
    <trip id="128" depart="76.80" from="-155315688#0" to="-722466951" type="td_0" departLane="best" departSpeed="max" departPos="random"/>
    <trip id="129" depart="77.40" from="100954129#0" to="723990057#3" type="td_0" departLane="best" departSpeed="max" departPos="random"/>
    <trip id="130" depart="78.00" from="721131963#3" to="721131966#0" type="td_0" departLane="best" departSpeed="max" departPos="random"/>
    <trip id="131" depart="78.60" from="1149579537#1" to="-442885101#2" type="td_0" departLane="best" departSpeed="max" departPos="random"/>
    <trip id="132" depart="79.20" from="721131954#2" to="721131937#10" type="td_0" departLane="best" departSpeed="max" departPos="random"/>
    <trip id="133" depart="79.80" from="708790255#0" to="857958820#0" type="td_0" departLane="best" departSpeed="max" departPos="random"/>
    <trip id="134" depart="80.40" from="721126897#4" to="-100954129#4" type="td_0" departLane="best" departSpeed="max" departPos="random"/>
    <trip id="135" depart="81.00" from="721131946#8" to="1119166765#3" type="td_0" departLane="best" departSpeed="max" departPos="random"/>
    <trip id="136" depart="81.60" from="721126897#7" to="723990057#6" type="td_0" departLane="best" departSpeed="max" departPos="random"/>
    <trip id="137" depart="82.20" from="-31905195#1" to="-155775198#5" type="td_0" departLane="best" departSpeed="max" departPos="random"/>
    <trip id="138" depart="82.80" from="-155775198#3" to="350424622#2" type="td_0" departLane="best" departSpeed="max" departPos="random"/>
    <trip id="139" depart="83.40" from="100954129#4" to="708790255#0" type="td_0" departLane="best" departSpeed="max" departPos="random"/>
    <trip id="140" depart="84.00" from="721131937#10" to="-722464597#1" type="td_0" departLane="best" departSpeed="max" departPos="random"/>
    <trip id="141" depart="84.60" from="721126897#15" to="100954129#0" type="td_0" departLane="best" departSpeed="max" departPos="random"/>
    <trip id="142" depart="85.20" from="155315680#0" to="722464593#1" type="td_0" departLane="best" departSpeed="max" departPos="random"/>
    <trip id="143" depart="85.80" from="721131960#1" to="-155315695#0" type="td_0" departLane="best" departSpeed="max" departPos="random"/>
    <trip id="144" depart="86.40" from="152227686#1" to="1056899464#1" type="td_0" departLane="best" departSpeed="max" departPos="random"/>
    <trip id="145" depart="87.00" from="-100954129#1" to="721131946#14" type="td_0" departLane="best" departSpeed="max" departPos="random"/>
    <trip id="146" depart="87.60" from="721126897#15" to="-934270764" type="td_0" departLane="best" departSpeed="max" departPos="random"/>
    <trip id="147" depart="88.20" from="721131937#5" to="350424622#2" type="td_0" departLane="best" departSpeed="max" departPos="random"/>
    <trip id="148" depart="88.80" from="152227686#3" to="-100954129#5" type="td_0" departLane="best" departSpeed="max" departPos="random"/>
    <trip id="149" depart="89.40" from="-155315688#1" to="721131966#1" type="td_0" departLane="best" departSpeed="max" departPos="random"/>
    <trip id="150" depart="90.00" from="722464592" to="31905201#0" type="td_0" departLane="best" departSpeed="max" departPos="random"/>
    <trip id="151" depart="90.60" from="721131954#2" to="442885359#1" type="td_0" departLane="best" departSpeed="max" departPos="random"/>
    <trip id="152" depart="91.20" from="-442885101#1" to="-271412010" type="td_0" departLane="best" departSpeed="max" departPos="random"/>
    <trip id="153" depart="91.80" from="1119166765#3" to="722464592" type="td_0" departLane="best" departSpeed="max" departPos="random"/>
    <trip id="154" depart="92.40" from="721131946#3" to="721131963#0" type="td_0" departLane="best" departSpeed="max" departPos="random"/>
    <trip id="155" depart="93.00" from="722464591#3" to="-722466950" type="td_0" departLane="best" departSpeed="max" departPos="random"/>
    <trip id="156" depart="93.60" from="-850817949" to="-155315719#1" type="td_0" departLane="best" departSpeed="max" departPos="random"/>
    <trip id="157" depart="94.20" from="721131946#14" to="721131966#1" type="td_0" departLane="best" departSpeed="max" departPos="random"/>
    <trip id="158" depart="94.80" from="1149580109" to="721126897#14" type="td_0" departLane="best" departSpeed="max" departPos="random"/>
    <trip id="159" depart="95.40" from="-442885355#1" to="723990056" type="td_0" departLane="best" departSpeed="max" departPos="random"/>
    <trip id="160" depart="96.00" from="721131961" to="851342124" type="td_0" departLane="best" departSpeed="max" departPos="random"/>
    <trip id="161" depart="96.60" from="721131946#6" to="721131966#1" type="td_0" departLane="best" departSpeed="max" departPos="random"/>
    <trip id="162" depart="97.20" from="-1149576119" to="721131937#6" type="td_0" departLane="best" departSpeed="max" departPos="random"/>
    <trip id="163" depart="97.80" from="1149578944" to="723990056" type="td_0" departLane="best" departSpeed="max" departPos="random"/>
    <trip id="164" depart="98.40" from="721131946#5" to="721131963#1" type="td_0" departLane="best" departSpeed="max" departPos="random"/>
    <trip id="165" depart="99.00" from="721131946#6" to="100954129#2" type="td_0" departLane="best" departSpeed="max" departPos="random"/>
    <trip id="166" depart="99.60" from="721131946#15" to="-155315719#8" type="td_0" departLane="best" departSpeed="max" departPos="random"/>
    <trip id="167" depart="100.20" from="721131963#0" to="721131963#0" type="td_0" departLane="best" departSpeed="max" departPos="random"/>
    <trip id="168" depart="100.80" from="-723990057#4" to="721131954#0" type="td_0" departLane="best" departSpeed="max" departPos="random"/>
    <trip id="169" depart="101.40" from="152227691#5" to="1119166765#6" type="td_0" departLane="best" departSpeed="max" departPos="random"/>
    <trip id="170" depart="102.00" from="721131946#3" to="-723990057#6" type="td_0" departLane="best" departSpeed="max" departPos="random"/>
    <trip id="171" depart="102.60" from="-1135316109" to="-721131953" type="td_0" departLane="best" departSpeed="max" departPos="random"/>
    <trip id="172" depart="103.20" from="1149578360#0" to="721131963#1" type="td_0" departLane="best" departSpeed="max" departPos="random"/>
    <trip id="173" depart="103.80" from="850475200" to="1056899464#2" type="td_0" departLane="best" departSpeed="max" departPos="random"/>
    <trip id="174" depart="104.40" from="721126897#2" to="1149580108" type="td_0" departLane="best" departSpeed="max" departPos="random"/>
    <trip id="175" depart="105.00" from="852629939" to="31905181#4" type="td_0" departLane="best" departSpeed="max" departPos="random"/>
    <trip id="176" depart="105.60" from="723990057#4" to="-155775198#5" type="td_0" departLane="best" departSpeed="max" departPos="random"/>
    <trip id="177" depart="106.20" from="850817946" to="-721131933#1" type="td_0" departLane="best" departSpeed="max" departPos="random"/>
    <trip id="178" depart="106.80" from="850475200" to="100954129#1" type="td_0" departLane="best" departSpeed="max" departPos="random"/>
    <trip id="179" depart="107.40" from="-155775198#3" to="152227691#12" type="td_0" departLane="best" departSpeed="max" departPos="random"/>
    <trip id="180" depart="108.00" from="721131937#13" to="1149578009" type="td_0" departLane="best" departSpeed="max" departPos="random"/>
    <trip id="181" depart="108.60" from="591704635#3" to="155315719#9" type="td_0" departLane="best" departSpeed="max" departPos="random"/>
    <trip id="182" depart="109.20" from="1149580107#0" to="442885355#1" type="td_0" departLane="best" departSpeed="max" departPos="random"/>
    <trip id="183" depart="109.80" from="-851342126" to="721131937#12" type="td_0" departLane="best" departSpeed="max" departPos="random"/>
    <trip id="184" depart="110.40" from="-100954129#0" to="723990054" type="td_0" departLane="best" departSpeed="max" departPos="random"/>
    <trip id="185" depart="111.00" from="271412010" to="721131937#2" type="td_0" departLane="best" departSpeed="max" departPos="random"/>
    <trip id="186" depart="111.60" from="721131937#5" to="721131934#1" type="td_0" departLane="best" departSpeed="max" departPos="random"/>
    <trip id="187" depart="112.20" from="1149579537#0" to="-152227697#3" type="td_0" departLane="best" departSpeed="max" departPos="random"/>
    <trip id="188" depart="112.80" from="721126897#7" to="1149578945" type="td_0" departLane="best" departSpeed="max" departPos="random"/>
    <trip id="189" depart="113.40" from="1119166765#6" to="721131960#5" type="td_0" departLane="best" departSpeed="max" departPos="random"/>
    <trip id="190" depart="114.00" from="721131937#12" to="1119166765#3" type="td_0" departLane="best" departSpeed="max" departPos="random"/>
    <trip id="191" depart="114.60" from="1119166765#3" to="1270367191#0" type="td_0" departLane="best" departSpeed="max" departPos="random"/>
    <trip id="192" depart="115.20" from="1149580107#4" to="1119166765#12" type="td_0" departLane="best" departSpeed="max" departPos="random"/>
    <trip id="193" depart="115.80" from="-31905181#3" to="152227691#0" type="td_0" departLane="best" departSpeed="max" departPos="random"/>
    <trip id="194" depart="116.40" from="723990057#4" to="721131934#4" type="td_0" departLane="best" departSpeed="max" departPos="random"/>
    <trip id="195" depart="117.00" from="722464592" to="721126897#13" type="td_0" departLane="best" departSpeed="max" departPos="random"/>
    <trip id="196" depart="117.60" from="1119166765#12" to="31905214" type="td_0" departLane="best" departSpeed="max" departPos="random"/>
    <trip id="197" depart="118.20" from="-100954129#0" to="1119166765#1" type="td_0" departLane="best" departSpeed="max" departPos="random"/>
    <trip id="198" depart="118.80" from="152227691#0" to="442885359#0" type="td_0" departLane="best" departSpeed="max" departPos="random"/>
    <trip id="199" depart="119.40" from="721126897#4" to="152227691#9" type="td_0" departLane="best" departSpeed="max" departPos="random"/>
    <trip id="200" depart="120.00" from="152227691#12" to="-723990054" type="td_0" departLane="best" departSpeed="max" departPos="random"/>
    <trip id="201" depart="120.60" from="152227691#9" to="722464592" type="td_0" departLane="best" departSpeed="max" departPos="random"/>
    <trip id="202" depart="121.20" from="721131946#3" to="-482169086#8" type="td_0" departLane="best" departSpeed="max" departPos="random"/>
    <trip id="203" depart="121.80" from="-155315694#3" to="155775198#1" type="td_0" departLane="best" departSpeed="max" departPos="random"/>
    <trip id="204" depart="122.40" from="721126897#15" to="1149579535" type="td_0" departLane="best" departSpeed="max" departPos="random"/>
    <trip id="205" depart="123.00" from="721131946#9" to="721131939" type="td_0" departLane="best" departSpeed="max" departPos="random"/>
    <trip id="206" depart="123.60" from="721131932" to="-723990057#4" type="td_0" departLane="best" departSpeed="max" departPos="random"/>
    <trip id="207" depart="124.20" from="-721131967" to="-1135316109" type="td_0" departLane="best" departSpeed="max" departPos="random"/>
    <trip id="208" depart="124.80" from="-850760537#1" to="155315678#5" type="td_0" departLane="best" departSpeed="max" departPos="random"/>
    <trip id="209" depart="125.40" from="721131960#1" to="-155315678#4" type="td_0" departLane="best" departSpeed="max" departPos="random"/>
    <trip id="210" depart="126.00" from="1149582046#0" to="721126897#15" type="td_0" departLane="best" departSpeed="max" departPos="random"/>