<additional xmlns:xsi="http://www.w3.org/2001/XMLSchema-instance" xsi:noNamespaceSchemaLocation="http://sumo.dlr.de/xsd/additional_file.xsd">
    <laneAreaDetector file="e2output.xml" freq="60" friendlyPos="x" id="e2det_-100954129#0_0" lane="-100954129#0_0" length="50" pos="3.6400000000000006"/>
    <laneAreaDetector file="e2output.xml" freq="60" friendlyPos="x" id="e2det_-155775198#3_0" lane="-155775198#3_0" length="50" pos="337.63"/>
    <laneAreaDetector file="e2output.xml" freq="60" friendlyPos="x" id="e2det_155775198#0_0" lane="155775198#0_0" length="50" pos="322.92"/>
    <laneAreaDetector file="e2output.xml" freq="60" friendlyPos="x" id="e2det_-100954129#3_0" lane="-100954129#3_0" length="50" pos="13.129999999999995"/>
    <laneAreaDetector file="e2output.xml" freq="60" friendlyPos="x" id="e2det_-155315678#5_0" lane="-155315678#5_0" length="50" pos="214.67000000000002"/>
    <laneAreaDetector file="e2output.xml" freq="60" friendlyPos="x" id="e2det_100954129#1_0" lane="100954129#1_0" length="48.04" pos="0"/>
    <laneAreaDetector file="e2output.xml" freq="60" friendlyPos="x" id="e2det_155315678#0_0" lane="155315678#0_0" length="50" pos="585.99"/>
    <laneAreaDetector file="e2output.xml" freq="60" friendlyPos="x" id="e2det_-100954245#13_0" lane="-100954245#13_0" length="50" pos="1399.89"/>
    <laneAreaDetector file="e2output.xml" freq="60" friendlyPos="x" id="e2det_-163652291_0" lane="-163652291_0" length="30.97" pos="0"/>
    <laneAreaDetector file="e2output.xml" freq="60" friendlyPos="x" id="e2det_-723990056_0" lane="-723990056_0" length="50" pos="20.47"/>
    <laneAreaDetector file="e2output.xml" freq="60" friendlyPos="x" id="e2det_1149582046#0_0" lane="1149582046#0_0" length="50" pos="1968.53"/>
    <laneAreaDetector file="e2output.xml" freq="60" friendlyPos="x" id="e2det_1149582046#0_1" lane="1149582046#0_1" length="50" pos="1968.53"/>
    <laneAreaDetector file="e2output.xml" freq="60" friendlyPos="x" id="e2det_-1117528626#0_0" lane="-1117528626#0_0" length="50" pos="206.54000000000002"/>
    <laneAreaDetector file="e2output.xml" freq="60" friendlyPos="x" id="e2det_-1117528626#1_0" lane="-1117528626#1_0" length="50" pos="389.99"/>
    <laneAreaDetector file="e2output.xml" freq="60" friendlyPos="x" id="e2det_-1307054560#0_0" lane="-1307054560#0_0" length="23.11" pos="0"/>
    <laneAreaDetector file="e2output.xml" freq="60" friendlyPos="x" id="e2det_100954163#9_0" lane="100954163#9_0" length="50" pos="138.45"/>
    <laneAreaDetector file="e2output.xml" freq="60" friendlyPos="x" id="e2det_1117528627#0_0" lane="1117528627#0_0" length="50" pos="391.9"/>
    <laneAreaDetector file="e2output.xml" freq="60" friendlyPos="x" id="e2det_1117528627#1_0" lane="1117528627#1_0" length="50" pos="136.64"/>
    <laneAreaDetector file="e2output.xml" freq="60" friendlyPos="x" id="e2det_-1117528627#0_0" lane="-1117528627#0_0" length="50" pos="195.39"/>
    <laneAreaDetector file="e2output.xml" freq="60" friendlyPos="x" id="e2det_-1117528627#2_0" lane="-1117528627#2_0" length="50" pos="389.03"/>
    <laneAreaDetector file="e2output.xml" freq="60" friendlyPos="x" id="e2det_-155775198#0_0" lane="-155775198#0_0" length="50" pos="323.14"/>
    <laneAreaDetector file="e2output.xml" freq="60" friendlyPos="x" id="e2det_155315669#0_0" lane="155315669#0_0" length="50" pos="680.72"/>
    <laneAreaDetector file="e2output.xml" freq="60" friendlyPos="x" id="e2det_723990057#7_0" lane="723990057#7_0" length="36.79" pos="0"/>
    <laneAreaDetector file="e2output.xml" freq="60" friendlyPos="x" id="e2det_-155315688#1_0" lane="-155315688#1_0" length="50" pos="37.260000000000005"/>
    <laneAreaDetector file="e2output.xml" freq="60" friendlyPos="x" id="e2det_-31905195#2_0" lane="-31905195#2_0" length="50" pos="59.44"/>
    <laneAreaDetector file="e2output.xml" freq="60" friendlyPos="x" id="e2det_155315688#0_0" lane="155315688#0_0" length="50" pos="11.430000000000007"/>
    <laneAreaDetector file="e2output.xml" freq="60" friendlyPos="x" id="e2det_31905195#1_0" lane="31905195#1_0" length="50" pos="23.099999999999994"/>
    <laneAreaDetector file="e2output.xml" freq="60" friendlyPos="x" id="e2det_-155315693#2_0" lane="-155315693#2_0" length="50" pos="219.24"/>
    <laneAreaDetector file="e2output.xml" freq="60" friendlyPos="x" id="e2det_-155775198#4_0" lane="-155775198#4_0" length="26.64" pos="0"/>
    <laneAreaDetector file="e2output.xml" freq="60" friendlyPos="x" id="e2det_155775198#1_0" lane="155775198#1_0" length="50" pos="337.69"/>
    <laneAreaDetector file="e2output.xml" freq="60" friendlyPos="x" id="e2det_-155775200#1_0" lane="-155775200#1_0" length="50" pos="677.21"/>
    <laneAreaDetector file="e2output.xml" freq="60" friendlyPos="x" id="e2det_-482169086#8_0" lane="-482169086#8_0" length="50" pos="1275.21"/>
    <laneAreaDetector file="e2output.xml" freq="60" friendlyPos="x" id="e2det_-482169086#8_1" lane="-482169086#8_1" length="50" pos="1275.21"/>
    <laneAreaDetector file="e2output.xml" freq="60" friendlyPos="x" id="e2det_1149580107#4_0" lane="1149580107#4_0" length="50" pos="17.53"/>
    <laneAreaDetector file="e2output.xml" freq="60" friendlyPos="x" id="e2det_1149580107#4_1" lane="1149580107#4_1" length="50" pos="17.53"/>
    <laneAreaDetector file="e2output.xml" freq="60" friendlyPos="x" id="e2det_-205021436#0_0" lane="-205021436#0_0" length="50" pos="504.90999999999997"/>
    <laneAreaDetector file="e2output.xml" freq="60" friendlyPos="x" id="e2det_-766326334.90_0" lane="-766326334.90_0" length="50" pos="95.44999999999999"/>
    <laneAreaDetector file="e2output.xml" freq="60" friendlyPos="x" id="e2det_1149581388_0" lane="1149581388_0" length="50" pos="82.46000000000001"/>
    <laneAreaDetector file="e2output.xml" freq="60" friendlyPos="x" id="e2det_1307054560#5_0" lane="1307054560#5_0" length="50" pos="68.96"/>
    <laneAreaDetector file="e2output.xml" freq="60" friendlyPos="x" id="e2det_-31905214_0" lane="-31905214_0" length="50" pos="63.92"/>
    <laneAreaDetector file="e2output.xml" freq="60" friendlyPos="x" id="e2det_-442885101#0_0" lane="-442885101#0_0" length="50" pos="75.21000000000001"/>
    <laneAreaDetector file="e2output.xml" freq="60" friendlyPos="x" id="e2det_-442885101#0_1" lane="-442885101#0_1" length="50" pos="75.21000000000001"/>
    <laneAreaDetector file="e2output.xml" freq="60" friendlyPos="x" id="e2det_155315680#0_0" lane="155315680#0_0" length="50" pos="44.39"/>
    <laneAreaDetector file="e2output.xml" freq="60" friendlyPos="x" id="e2det_31905195#2_0" lane="31905195#2_0" length="50" pos="59.44"/>
    <laneAreaDetector file="e2output.xml" freq="60" friendlyPos="x" id="e2det_482169086#0_0" lane="482169086#0_0" length="50" pos="1271.68"/>
    <laneAreaDetector file="e2output.xml" freq="60" friendlyPos="x" id="e2det_482169086#0_1" lane="482169086#0_1" length="50" pos="1271.68"/>
    <laneAreaDetector file="e2output.xml" freq="60" friendlyPos="x" id="e2det_-442885101#1_0" lane="-442885101#1_0" length="31.21" pos="0"/>
    <laneAreaDetector file="e2output.xml" freq="60" friendlyPos="x" id="e2det_-442885101#1_1" lane="-442885101#1_1" length="31.21" pos="0"/>
    <laneAreaDetector file="e2output.xml" freq="60" friendlyPos="x" id="e2det_155315688#1_0" lane="155315688#1_0" length="50" pos="37.47"/>
    <laneAreaDetector file="e2output.xml" freq="60" friendlyPos="x" id="e2det_442885101#0_0" lane="442885101#0_0" length="50" pos="74.25999999999999"/>
    <laneAreaDetector file="e2output.xml" freq="60" friendlyPos="x" id="e2det_442885101#0_1" lane="442885101#0_1" length="50" pos="74.25999999999999"/>
    <laneAreaDetector file="e2output.xml" freq="60" friendlyPos="x" id="e2det_-442885359#0_0" lane="-442885359#0_0" length="50" pos="17.340000000000003"/>
    <laneAreaDetector file="e2output.xml" freq="60" friendlyPos="x" id="e2det_442885101#2_0" lane="442885101#2_0" length="44.21" pos="0"/>
    <laneAreaDetector file="e2output.xml" freq="60" friendlyPos="x" id="e2det_442885101#2_1" lane="442885101#2_1" length="44.21" pos="0"/>
    <laneAreaDetector file="e2output.xml" freq="60" friendlyPos="x" id="e2det_442885355#2_0" lane="442885355#2_0" length="26.09" pos="0"/>
    <laneAreaDetector file="e2output.xml" freq="60" friendlyPos="x" id="e2det_-723990057#6_0" lane="-723990057#6_0" length="41.34" pos="0"/>
    <laneAreaDetector file="e2output.xml" freq="60" friendlyPos="x" id="e2det_1117528626#0_0" lane="1117528626#0_0" length="50" pos="393.14"/>
    <laneAreaDetector file="e2output.xml" freq="60" friendlyPos="x" id="e2det_155315678#5_0" lane="155315678#5_0" length="50" pos="214.67000000000002"/>
    <laneAreaDetector file="e2output.xml" freq="60" friendlyPos="x" id="e2det_723990057#5_0" lane="723990057#5_0" length="34.97" pos="0"/>
    <laneAreaDetector file="e2output.xml" freq="60" friendlyPos="x" id="e2det_1119166764#0_0" lane="1119166764#0_0" length="50" pos="150.09"/>
    <laneAreaDetector file="e2output.xml" freq="60" friendlyPos="x" id="e2det_1119166764#0_1" lane="1119166764#0_1" length="50" pos="150.09"/>
    <laneAreaDetector file="e2output.xml" freq="60" friendlyPos="x" id="e2det_1119166764#0_2" lane="1119166764#0_2" length="50" pos="150.09"/>
    <laneAreaDetector file="e2output.xml" freq="60" friendlyPos="x" id="e2det_721131960#5_0" lane="721131960#5_0" length="0.7400000000000002" pos="0"/>
    <laneAreaDetector file="e2output.xml" freq="60" friendlyPos="x" id="e2det_721131960#5_1" lane="721131960#5_1" length="0.7400000000000002" pos="0"/>
    <laneAreaDetector file="e2output.xml" freq="60" friendlyPos="x" id="e2det_721131960#5_2" lane="721131960#5_2" length="0.7400000000000002" pos="0"/>
    <laneAreaDetector file="e2output.xml" freq="60" friendlyPos="x" id="e2det_722464591#3_0" lane="722464591#3_0" length="50" pos="5.979999999999997"/>
    <laneAreaDetector file="e2output.xml" freq="60" friendlyPos="x" id="e2det_722464591#3_1" lane="722464591#3_1" length="50" pos="5.979999999999997"/>
    <laneAreaDetector file="e2output.xml" freq="60" friendlyPos="x" id="e2det_722464591#3_2" lane="722464591#3_2" length="50" pos="5.979999999999997"/>
    <laneAreaDetector file="e2output.xml" freq="60" friendlyPos="x" id="e2det_1149579537#6_0" lane="1149579537#6_0" length="50" pos="121.44"/>
    <laneAreaDetector file="e2output.xml" freq="60" friendlyPos="x" id="e2det_1149579537#6_1" lane="1149579537#6_1" length="50" pos="121.44"/>
    <laneAreaDetector file="e2output.xml" freq="60" friendlyPos="x" id="e2det_721126897#15_0" lane="721126897#15_0" length="16.55" pos="0"/>
    <laneAreaDetector file="e2output.xml" freq="60" friendlyPos="x" id="e2det_721126897#15_1" lane="721126897#15_1" length="16.55" pos="0"/>
    <laneAreaDetector file="e2output.xml" freq="60" friendlyPos="x" id="e2det_721126897#15_2" lane="721126897#15_2" length="16.55" pos="0"/>
    <laneAreaDetector file="e2output.xml" freq="60" friendlyPos="x" id="e2det_721131946#15_0" lane="721131946#15_0" length="16.75" pos="0"/>
    <laneAreaDetector file="e2output.xml" freq="60" friendlyPos="x" id="e2det_721131946#15_1" lane="721131946#15_1" length="16.75" pos="0"/>
</additional>
