<?xml version="1.0" encoding="UTF-8"?>

<!-- generated on 2025-08-15 15:58:50 by Eclipse SUMO netedit Version 1.22.0
<neteditConfiguration xmlns:xsi="http://www.w3.org/2001/XMLSchema-instance" xsi:noNamespaceSchemaLocation="http://sumo.dlr.de/xsd/neteditConfiguration.xsd">

    <input>
        <sumo-net-file value=".\phuquoc2.net.xml"/>
    </input>

    <output>
        <output-file value=".\phuquoc2.net.xml"/>
    </output>

    <processing>
        <geometry.min-radius.fix.railways value="false"/>
        <geometry.avoid-overlap value="0"/>
        <geometry.max-grade.fix value="false"/>
        <offset.disable-normalization value="true"/>
        <lefthand value="0"/>
    </processing>

    <junctions>
        <no-turnarounds value="true"/>
        <junctions.corner-detail value="5"/>
        <junctions.limit-turn-speed value="5.50"/>
        <rectangular-lane-cut value="0"/>
    </junctions>

    <pedestrian>
        <walkingareas value="0"/>
    </pedestrian>

</neteditConfiguration>
-->

<net version="1.20" junctionCornerDetail="5" limitTurnSpeed="5.50" avoidOverlap="0" xmlns:xsi="http://www.w3.org/2001/XMLSchema-instance" xsi:noNamespaceSchemaLocation="http://sumo.dlr.de/xsd/net_file.xsd">

    <location netOffset="-385269.25,-1128550.39" convBoundary="118.87,-2671.45,4897.10,4272.91" origBoundary="103.952449,10.207621,103.984468,10.246253" projParameter="+proj=utm +zone=48 +ellps=WGS84 +datum=WGS84 +units=m +no_defs"/>

    <type id="highway.primary" priority="12" numLanes="2" speed="27.78" disallow="tram rail_urban rail rail_electric rail_fast ship container cable_car subway aircraft wheelchair scooter drone" oneway="0"/>
    <type id="highway.primary_link" priority="7" numLanes="1" speed="22.22" disallow="tram rail_urban rail rail_electric rail_fast ship container cable_car subway aircraft wheelchair scooter drone" oneway="0"/>
    <type id="highway.residential" priority="3" numLanes="1" speed="13.89" disallow="tram rail_urban rail rail_electric rail_fast ship container cable_car subway aircraft wheelchair scooter drone" oneway="0"/>
    <type id="highway.secondary" priority="11" numLanes="1" speed="27.78" disallow="tram rail_urban rail rail_electric rail_fast ship container cable_car subway aircraft wheelchair scooter drone" oneway="0"/>
    <type id="highway.secondary_link" priority="6" numLanes="1" speed="22.22" disallow="tram rail_urban rail rail_electric rail_fast ship container cable_car subway aircraft wheelchair scooter drone" oneway="0"/>
    <type id="highway.service" priority="1" numLanes="1" speed="5.56" allow="pedestrian delivery bicycle" oneway="0"/>
    <type id="highway.tertiary" priority="10" numLanes="1" speed="22.22" disallow="tram rail_urban rail rail_electric rail_fast ship container cable_car subway aircraft wheelchair scooter drone" oneway="0"/>
    <type id="highway.unclassified" priority="4" numLanes="1" speed="13.89" disallow="tram rail_urban rail rail_electric rail_fast ship container cable_car subway aircraft wheelchair scooter drone" oneway="0"/>

    <edge id=":10694320153_0" function="internal">
        <lane id=":10694320153_0_0" index="0" disallow="tram rail_urban rail rail_electric rail_fast ship container cable_car subway aircraft wheelchair scooter drone" speed="27.78" length="9.42" shape="4381.17,1049.58 4376.29,1057.55"/>
        <lane id=":10694320153_0_1" index="1" disallow="tram rail_urban rail rail_electric rail_fast ship container cable_car subway aircraft wheelchair scooter drone" speed="27.78" length="9.42" shape="4378.45,1047.88 4373.54,1055.92"/>
        <lane id=":10694320153_0_2" index="2" disallow="tram rail_urban rail rail_electric rail_fast ship container cable_car subway aircraft wheelchair scooter drone" speed="27.78" length="9.42" shape="4375.74,1046.19 4370.78,1054.29"/>
    </edge>
    <edge id=":10694320153_3" function="internal">
        <lane id=":10694320153_3_0" index="0" disallow="tram rail_urban rail rail_electric rail_fast ship container cable_car subway aircraft wheelchair scooter drone" speed="5.75" length="7.84" shape="4375.74,1046.19 4374.03,1048.54 4372.47,1049.90 4371.06,1050.27 4369.80,1049.64"/>
    </edge>
    <edge id=":10694320153_4" function="internal">
        <lane id=":10694320153_4_0" index="0" disallow="tram rail_urban rail rail_electric rail_fast ship container cable_car subway aircraft wheelchair scooter drone" speed="7.26" length="9.56" shape="4371.99,1047.31 4373.69,1049.36 4374.51,1051.47 4374.46,1053.66 4373.54,1055.92"/>
        <lane id=":10694320153_4_1" index="1" disallow="tram rail_urban rail rail_electric rail_fast ship container cable_car subway aircraft wheelchair scooter drone" speed="6.52" length="7.54" shape="4371.99,1047.31 4372.62,1048.41 4372.63,1049.94 4372.02,1051.90 4370.78,1054.29"/>
    </edge>
    <edge id=":10694320153_6" function="internal">
        <lane id=":10694320153_6_0" index="0" disallow="tram rail_urban rail rail_electric rail_fast ship container cable_car subway aircraft wheelchair scooter drone" speed="3.65" length="4.67" shape="4371.99,1047.31 4372.32,1048.72 4372.06,1049.57 4371.22,1049.88 4369.80,1049.64"/>
    </edge>
    <edge id=":10694320154_0" function="internal">
        <lane id=":10694320154_0_0" index="0" disallow="tram rail_urban rail rail_electric rail_fast ship container cable_car subway aircraft wheelchair scooter drone" speed="6.83" length="10.38" shape="4359.75,1064.93 4357.59,1063.06 4356.58,1060.96 4356.72,1058.63 4358.03,1056.08"/>
        <lane id=":10694320154_0_1" index="1" disallow="tram rail_urban rail rail_electric rail_fast ship container cable_car subway aircraft wheelchair scooter drone" speed="6.04" length="7.88" shape="4359.75,1064.93 4358.76,1063.82 4358.58,1062.28 4359.21,1060.32 4360.64,1057.93"/>
    </edge>
    <edge id=":10694320154_2" function="internal">
        <lane id=":10694320154_2_0" index="0" disallow="tram rail_urban rail rail_electric rail_fast ship container cable_car subway aircraft wheelchair scooter drone" speed="3.65" length="4.67" shape="4359.75,1064.93 4359.17,1063.61 4359.27,1062.72 4360.04,1062.26 4361.48,1062.24"/>
    </edge>
    <edge id=":10694320154_3" function="internal">
        <lane id=":10694320154_3_0" index="0" disallow="tram rail_urban rail rail_electric rail_fast ship container cable_car subway aircraft wheelchair scooter drone" speed="27.78" length="9.74" shape="4349.95,1062.57 4355.41,1054.24"/>
        <lane id=":10694320154_3_1" index="1" disallow="tram rail_urban rail rail_electric rail_fast ship container cable_car subway aircraft wheelchair scooter drone" speed="27.78" length="9.74" shape="4352.69,1064.23 4358.03,1056.08"/>
        <lane id=":10694320154_3_2" index="2" disallow="tram rail_urban rail rail_electric rail_fast ship container cable_car subway aircraft wheelchair scooter drone" speed="27.78" length="9.74" shape="4355.43,1065.89 4360.64,1057.93"/>
    </edge>
    <edge id=":10694320154_6" function="internal">
        <lane id=":10694320154_6_0" index="0" disallow="tram rail_urban rail rail_electric rail_fast ship container cable_car subway aircraft wheelchair scooter drone" speed="6.07" length="7.87" shape="4355.43,1065.89 4357.04,1063.62 4358.58,1062.26 4360.06,1061.80 4361.48,1062.24"/>
    </edge>
    <edge id=":10694340155_0" function="internal">
        <lane id=":10694340155_0_0" index="0" disallow="tram rail_urban rail rail_electric rail_fast ship container cable_car subway aircraft wheelchair scooter drone" speed="6.18" length="7.85" width="3.50" shape="3291.07,589.50 3290.05,588.44 3289.76,586.90 3290.19,584.88 3291.35,582.39"/>
    </edge>
    <edge id=":10694340155_1" function="internal">
        <lane id=":10694340155_1_0" index="0" disallow="tram rail_urban rail rail_electric rail_fast ship container cable_car subway aircraft wheelchair scooter drone" speed="3.65" length="4.67" shape="3291.07,589.50 3290.45,588.20 3290.52,587.31 3291.27,586.83 3292.72,586.76"/>
    </edge>
    <edge id=":10694340155_2" function="internal">
        <lane id=":10694340155_2_0" index="0" disallow="tram rail_urban rail rail_electric rail_fast ship container cable_car subway aircraft wheelchair scooter drone" speed="27.78" length="9.32" width="3.50" shape="3283.68,588.74 3288.29,580.69"/>
        <lane id=":10694340155_2_1" index="1" disallow="tram rail_urban rail rail_electric rail_fast ship container cable_car subway aircraft wheelchair scooter drone" speed="27.78" length="9.32" width="3.50" shape="3286.69,590.51 3291.35,582.39"/>
    </edge>
    <edge id=":10694340155_4" function="internal">
        <lane id=":10694340155_4_0" index="0" disallow="tram rail_urban rail rail_electric rail_fast ship container cable_car subway aircraft wheelchair scooter drone" speed="6.14" length="7.88" shape="3286.69,590.51 3288.27,588.24 3289.80,586.85 3291.28,586.36 3292.72,586.76"/>
    </edge>
    <edge id=":10694340156_0" function="internal">
        <lane id=":10694340156_0_0" index="0" disallow="tram rail_urban rail rail_electric rail_fast ship container cable_car subway aircraft wheelchair scooter drone" speed="27.78" length="9.53" shape="3192.23,738.66 3185.17,745.15"/>
        <lane id=":10694340156_0_1" index="1" disallow="tram rail_urban rail rail_electric rail_fast ship container cable_car subway aircraft wheelchair scooter drone" speed="27.78" length="9.53" shape="3190.01,736.35 3183.05,742.76"/>
    </edge>
    <edge id=":10694340156_2" function="internal">
        <lane id=":10694340156_2_0" index="0" disallow="tram rail_urban rail rail_electric rail_fast ship container cable_car subway aircraft wheelchair scooter drone" speed="6.11" length="7.84" shape="3190.01,736.35 3187.88,738.11 3186.04,739.04 3184.49,739.12 3183.23,738.37"/>
    </edge>
    <edge id=":10694340156_3" function="internal">
        <lane id=":10694340156_3_0" index="0" disallow="tram rail_urban rail rail_electric rail_fast ship container cable_car subway aircraft wheelchair scooter drone" speed="6.04" length="7.86" shape="3185.55,736.17 3186.24,737.47 3186.06,739.00 3184.99,740.76 3183.05,742.76"/>
    </edge>
    <edge id=":10694340156_4" function="internal">
        <lane id=":10694340156_4_0" index="0" disallow="tram rail_urban rail rail_electric rail_fast ship container cable_car subway aircraft wheelchair scooter drone" speed="3.65" length="4.67" shape="3185.55,736.17 3185.80,737.59 3185.50,738.43 3184.64,738.69 3183.23,738.37"/>
    </edge>
    <edge id=":10694340229_0" function="internal">
        <lane id=":10694340229_0_0" index="0" disallow="tram rail_urban rail rail_electric rail_fast ship container cable_car subway aircraft wheelchair scooter drone" speed="6.79" length="10.61" shape="4223.72,-565.41 4220.78,-565.66 4218.72,-566.81 4217.52,-568.84 4217.19,-571.77"/>
        <lane id=":10694340229_0_1" index="1" disallow="tram rail_urban rail rail_electric rail_fast ship container cable_car subway aircraft wheelchair scooter drone" speed="5.99" length="8.01" shape="4223.72,-565.41 4222.19,-565.73 4221.12,-566.88 4220.52,-568.86 4220.39,-571.67"/>
    </edge>
    <edge id=":10694340229_2" function="internal">
        <lane id=":10694340229_2_0" index="0" disallow="tram rail_urban rail rail_electric rail_fast ship container cable_car subway aircraft wheelchair scooter drone" speed="3.65" length="4.67" shape="4223.72,-565.41 4222.47,-566.14 4222.03,-566.92 4222.38,-567.74 4223.53,-568.61"/>
    </edge>
    <edge id=":10694340229_3" function="internal">
        <lane id=":10694340229_3_0" index="0" disallow="tram rail_urban rail rail_electric rail_fast ship container cable_car subway aircraft wheelchair scooter drone" speed="27.78" length="9.51" shape="4213.77,-562.31 4213.99,-571.87"/>
        <lane id=":10694340229_3_1" index="1" disallow="tram rail_urban rail rail_electric rail_fast ship container cable_car subway aircraft wheelchair scooter drone" speed="27.78" length="9.51" shape="4216.97,-562.26 4217.19,-571.77"/>
        <lane id=":10694340229_3_2" index="2" disallow="tram rail_urban rail rail_electric rail_fast ship container cable_car subway aircraft wheelchair scooter drone" speed="27.78" length="9.51" shape="4220.17,-562.22 4220.39,-571.67"/>
    </edge>
    <edge id=":10694340229_6" function="internal">
        <lane id=":10694340229_6_0" index="0" disallow="tram rail_urban rail rail_electric rail_fast ship container cable_car subway aircraft wheelchair scooter drone" speed="6.29" length="7.93" shape="4220.17,-562.22 4220.41,-564.94 4221.05,-566.92 4222.09,-568.14 4223.53,-568.61"/>
    </edge>
    <edge id=":10694340230_0" function="internal">
        <lane id=":10694340230_0_0" index="0" disallow="tram rail_urban rail rail_electric rail_fast ship container cable_car subway aircraft wheelchair scooter drone" speed="27.78" length="9.38" shape="4234.27,-571.88 4234.31,-562.52"/>
        <lane id=":10694340230_0_1" index="1" disallow="tram rail_urban rail rail_electric rail_fast ship container cable_car subway aircraft wheelchair scooter drone" speed="27.78" length="9.38" shape="4231.07,-571.87 4231.11,-562.50"/>
        <lane id=":10694340230_0_2" index="2" disallow="tram rail_urban rail rail_electric rail_fast ship container cable_car subway aircraft wheelchair scooter drone" speed="27.78" length="9.38" shape="4227.87,-571.87 4227.91,-562.47"/>
    </edge>
    <edge id=":10694340230_3" function="internal">
        <lane id=":10694340230_3_0" index="0" disallow="tram rail_urban rail rail_electric rail_fast ship container cable_car subway aircraft wheelchair scooter drone" speed="6.23" length="7.83" shape="4227.87,-571.87 4227.67,-569.14 4227.08,-567.16 4226.09,-565.94 4224.71,-565.47"/>
    </edge>
    <edge id=":10694340230_4" function="internal">
        <lane id=":10694340230_4_0" index="0" disallow="tram rail_urban rail rail_electric rail_fast ship container cable_car subway aircraft wheelchair scooter drone" speed="6.82" length="10.41" shape="4224.52,-568.66 4227.39,-568.42 4229.44,-567.31 4230.68,-565.34 4231.11,-562.50"/>
        <lane id=":10694340230_4_1" index="1" disallow="tram rail_urban rail rail_electric rail_fast ship container cable_car subway aircraft wheelchair scooter drone" speed="6.03" length="7.90" shape="4224.52,-568.66 4225.99,-568.35 4227.04,-567.21 4227.68,-565.25 4227.91,-562.47"/>
    </edge>
    <edge id=":10694340230_6" function="internal">
        <lane id=":10694340230_6_0" index="0" disallow="tram rail_urban rail rail_electric rail_fast ship container cable_car subway aircraft wheelchair scooter drone" speed="3.65" length="4.67" shape="4224.52,-568.66 4225.77,-567.94 4226.21,-567.16 4225.86,-566.34 4224.71,-565.47"/>
    </edge>
    <edge id=":10694350771_0" function="internal">
        <lane id=":10694350771_0_0" index="0" disallow="tram rail_urban rail rail_electric rail_fast ship container cable_car subway aircraft wheelchair scooter drone" speed="6.05" length="8.05" width="3.50" shape="3398.30,428.32 3397.56,426.92 3397.74,425.34 3398.84,423.59 3400.87,421.65"/>
    </edge>
    <edge id=":10694350771_1" function="internal">
        <lane id=":10694350771_1_0" index="0" disallow="tram rail_urban rail rail_electric rail_fast ship container cable_car subway aircraft wheelchair scooter drone" speed="3.65" length="4.67" shape="3398.30,428.32 3398.08,426.89 3398.39,426.06 3399.25,425.81 3400.65,426.15"/>
    </edge>
    <edge id=":10694350771_2" function="internal">
        <lane id=":10694350771_2_0" index="0" disallow="tram rail_urban rail rail_electric rail_fast ship container cable_car subway aircraft wheelchair scooter drone" speed="27.78" length="9.65" width="3.50" shape="3391.30,425.34 3398.67,418.94"/>
        <lane id=":10694350771_2_1" index="1" disallow="tram rail_urban rail rail_electric rail_fast ship container cable_car subway aircraft wheelchair scooter drone" speed="27.78" length="9.65" width="3.50" shape="3393.68,427.90 3400.87,421.65"/>
    </edge>
    <edge id=":10694350771_4" function="internal">
        <lane id=":10694350771_4_0" index="0" disallow="tram rail_urban rail rail_electric rail_fast ship container cable_car subway aircraft wheelchair scooter drone" speed="6.19" length="8.01" shape="3393.68,427.90 3395.85,426.18 3397.73,425.31 3399.33,425.30 3400.65,426.15"/>
    </edge>
    <edge id=":10694350772_0" function="internal">
        <lane id=":10694350772_0_0" index="0" disallow="tram rail_urban rail rail_electric rail_fast ship container cable_car subway aircraft wheelchair scooter drone" speed="27.78" length="9.32" shape="3408.74,430.64 3401.75,436.73"/>
        <lane id=":10694350772_0_1" index="1" disallow="tram rail_urban rail rail_electric rail_fast ship container cable_car subway aircraft wheelchair scooter drone" speed="27.78" length="9.32" shape="3406.67,428.19 3399.61,434.35"/>
    </edge>
    <edge id=":10694350772_2" function="internal">
        <lane id=":10694350772_2_0" index="0" disallow="tram rail_urban rail rail_electric rail_fast ship container cable_car subway aircraft wheelchair scooter drone" speed="6.17" length="7.76" shape="3406.67,428.19 3404.46,429.82 3402.58,430.65 3401.03,430.70 3399.82,429.97"/>
    </edge>
    <edge id=":10694350772_3" function="internal">
        <lane id=":10694350772_3_0" index="0" disallow="tram rail_urban rail rail_electric rail_fast ship container cable_car subway aircraft wheelchair scooter drone" speed="6.07" length="7.80" shape="3402.17,427.79 3402.82,429.08 3402.61,430.60 3401.54,432.35 3399.61,434.35"/>
    </edge>
    <edge id=":10694350772_4" function="internal">
        <lane id=":10694350772_4_0" index="0" disallow="tram rail_urban rail rail_electric rail_fast ship container cable_car subway aircraft wheelchair scooter drone" speed="3.65" length="4.67" shape="3402.17,427.79 3402.40,429.22 3402.08,430.06 3401.22,430.30 3399.82,429.97"/>
    </edge>
    <edge id=":10694350773_0" function="internal">
        <lane id=":10694350773_0_0" index="0" disallow="tram rail_urban rail rail_electric rail_fast ship container cable_car subway aircraft wheelchair scooter drone" speed="6.11" length="7.87" width="3.50" shape="3471.25,368.91 3470.62,367.57 3470.85,366.02 3471.96,364.28 3473.93,362.34"/>
    </edge>
    <edge id=":10694350773_1" function="internal">
        <lane id=":10694350773_1_0" index="0" disallow="tram rail_urban rail rail_electric rail_fast ship container cable_car subway aircraft wheelchair scooter drone" speed="3.65" length="4.67" shape="3471.25,368.91 3471.07,367.48 3471.42,366.65 3472.29,366.43 3473.68,366.82"/>
    </edge>
    <edge id=":10694350773_2" function="internal">
        <lane id=":10694350773_2_0" index="0" disallow="tram rail_urban rail rail_electric rail_fast ship container cable_car subway aircraft wheelchair scooter drone" speed="27.78" length="9.32" width="3.50" shape="3464.52,365.60 3471.66,359.67"/>
        <lane id=":10694350773_2_1" index="1" disallow="tram rail_urban rail rail_electric rail_fast ship container cable_car subway aircraft wheelchair scooter drone" speed="27.78" length="9.32" width="3.50" shape="3466.72,368.32 3473.93,362.34"/>
    </edge>
    <edge id=":10694350773_4" function="internal">
        <lane id=":10694350773_4_0" index="0" disallow="tram rail_urban rail rail_electric rail_fast ship container cable_car subway aircraft wheelchair scooter drone" speed="6.21" length="7.85" shape="3466.72,368.32 3468.98,366.75 3470.89,365.98 3472.46,366.00 3473.68,366.82"/>
    </edge>
    <edge id=":10694350774_0" function="internal">
        <lane id=":10694350774_0_0" index="0" disallow="tram rail_urban rail rail_electric rail_fast ship container cable_car subway aircraft wheelchair scooter drone" speed="27.78" length="9.40" shape="3480.36,369.89 3473.19,375.97"/>
        <lane id=":10694350774_0_1" index="1" disallow="tram rail_urban rail rail_electric rail_fast ship container cable_car subway aircraft wheelchair scooter drone" speed="27.78" length="9.40" shape="3478.29,367.45 3471.12,373.53"/>
    </edge>
    <edge id=":10694350774_2" function="internal">
        <lane id=":10694350774_2_0" index="0" disallow="tram rail_urban rail rail_electric rail_fast ship container cable_car subway aircraft wheelchair scooter drone" speed="6.09" length="7.76" shape="3478.29,367.45 3476.06,369.08 3474.18,369.91 3472.65,369.94 3471.47,369.16"/>
    </edge>
    <edge id=":10694350774_3" function="internal">
        <lane id=":10694350774_3_0" index="0" disallow="tram rail_urban rail rail_electric rail_fast ship container cable_car subway aircraft wheelchair scooter drone" speed="6.08" length="7.77" shape="3473.89,367.08 3474.48,368.37 3474.22,369.88 3473.10,371.60 3471.12,373.53"/>
    </edge>
    <edge id=":10694350774_4" function="internal">
        <lane id=":10694350774_4_0" index="0" disallow="tram rail_urban rail rail_electric rail_fast ship container cable_car subway aircraft wheelchair scooter drone" speed="3.65" length="4.67" shape="3473.89,367.08 3474.07,368.51 3473.72,369.33 3472.85,369.55 3471.47,369.16"/>
    </edge>
    <edge id=":10694350775_0" function="internal">
        <lane id=":10694350775_0_0" index="0" disallow="tram rail_urban rail rail_electric rail_fast ship container cable_car subway aircraft wheelchair scooter drone" speed="5.97" length="8.36" width="3.50" shape="3676.15,209.74 3675.40,208.15 3675.69,206.55 3677.03,204.93 3679.41,203.31"/>
    </edge>
    <edge id=":10694350775_1" function="internal">
        <lane id=":10694350775_1_0" index="0" disallow="tram rail_urban rail rail_electric rail_fast ship container cable_car subway aircraft wheelchair scooter drone" speed="3.65" length="4.67" shape="3676.15,209.74 3676.02,208.30 3676.40,207.49 3677.27,207.30 3678.64,207.74"/>
    </edge>
    <edge id=":10694350775_2" function="internal">
        <lane id=":10694350775_2_0" index="0" disallow="tram rail_urban rail rail_electric rail_fast ship container cable_car subway aircraft wheelchair scooter drone" speed="27.78" length="9.62" width="3.50" shape="3669.33,205.17 3677.69,200.26"/>
        <lane id=":10694350775_2_1" index="1" disallow="tram rail_urban rail rail_electric rail_fast ship container cable_car subway aircraft wheelchair scooter drone" speed="27.78" length="9.62" width="3.50" shape="3671.18,208.15 3679.41,203.31"/>
    </edge>
    <edge id=":10694350775_4" function="internal">
        <lane id=":10694350775_4_0" index="0" disallow="tram rail_urban rail rail_electric rail_fast ship container cable_car subway aircraft wheelchair scooter drone" speed="6.54" length="8.20" shape="3671.18,208.15 3673.60,206.91 3675.65,206.43 3677.33,206.71 3678.64,207.74"/>
    </edge>
    <edge id=":10694358050_0" function="internal">
        <lane id=":10694358050_0_0" index="0" disallow="tram rail_urban rail rail_electric rail_fast ship container cable_car subway aircraft wheelchair scooter drone" speed="27.78" length="9.40" shape="2105.60,1002.24 2096.75,1005.41"/>
        <lane id=":10694358050_0_1" index="1" disallow="tram rail_urban rail rail_electric rail_fast ship container cable_car subway aircraft wheelchair scooter drone" speed="27.78" length="9.40" shape="2104.52,999.23 2095.67,1002.40"/>
    </edge>
    <edge id=":10694358050_2" function="internal">
        <lane id=":10694358050_2_0" index="0" disallow="tram rail_urban rail rail_electric rail_fast ship container cable_car subway aircraft wheelchair scooter drone" speed="6.05" length="7.84" shape="2104.52,999.23 2101.85,999.97 2099.79,1000.06 2098.36,999.50 2097.54,998.29"/>
    </edge>
    <edge id=":10694358050_3" function="internal">
        <lane id=":10694358050_3_0" index="0" disallow="tram rail_urban rail rail_electric rail_fast ship container cable_car subway aircraft wheelchair scooter drone" speed="6.16" length="7.80" shape="2100.59,997.30 2100.64,998.74 2099.84,1000.07 2098.19,1001.29 2095.67,1002.40"/>
    </edge>
    <edge id=":10694358050_4" function="internal">
        <lane id=":10694358050_4_0" index="0" disallow="tram rail_urban rail rail_electric rail_fast ship container cable_car subway aircraft wheelchair scooter drone" speed="3.65" length="4.67" shape="2100.59,997.30 2100.20,998.69 2099.56,999.31 2098.68,999.18 2097.54,998.29"/>
    </edge>
    <edge id=":10694358051_0" function="internal">
        <lane id=":10694358051_0_0" index="0" disallow="tram rail_urban rail rail_electric rail_fast ship container cable_car subway aircraft wheelchair scooter drone" speed="6.14" length="7.89" width="3.50" shape="2097.21,997.28 2097.14,995.79 2097.94,994.44 2099.61,993.22 2102.16,992.16"/>
    </edge>
    <edge id=":10694358051_1" function="internal">
        <lane id=":10694358051_1_0" index="0" disallow="tram rail_urban rail rail_electric rail_fast ship container cable_car subway aircraft wheelchair scooter drone" speed="3.65" length="4.67" shape="2097.21,997.28 2097.60,995.89 2098.24,995.26 2099.12,995.40 2100.26,996.29"/>
    </edge>
    <edge id=":10694358051_2" function="internal">
        <lane id=":10694358051_2_0" index="0" disallow="tram rail_urban rail rail_electric rail_fast ship container cable_car subway aircraft wheelchair scooter drone" speed="27.78" length="9.43" width="3.50" shape="2092.10,991.87 2101.04,988.84"/>
        <lane id=":10694358051_2_1" index="1" disallow="tram rail_urban rail rail_electric rail_fast ship container cable_car subway aircraft wheelchair scooter drone" speed="27.78" length="9.43" width="3.50" shape="2093.24,995.18 2102.16,992.16"/>
    </edge>
    <edge id=":10694358051_4" function="internal">
        <lane id=":10694358051_4_0" index="0" disallow="tram rail_urban rail rail_electric rail_fast ship container cable_car subway aircraft wheelchair scooter drone" speed="6.13" length="7.91" shape="2093.24,995.18 2095.92,994.48 2097.99,994.43 2099.43,995.03 2100.26,996.29"/>
    </edge>
    <edge id=":10694370954_0" function="internal">
        <lane id=":10694370954_0_0" index="0" disallow="tram rail_urban rail rail_electric rail_fast ship container cable_car subway aircraft wheelchair scooter drone" speed="27.78" length="9.41" width="3.50" shape="2396.29,983.22 2404.93,986.95"/>
        <lane id=":10694370954_0_1" index="1" disallow="tram rail_urban rail rail_electric rail_fast ship container cable_car subway aircraft wheelchair scooter drone" speed="27.78" length="9.41" width="3.50" shape="2394.90,986.44 2403.54,990.16"/>
    </edge>
    <edge id=":10694370954_2" function="internal">
        <lane id=":10694370954_2_0" index="0" disallow="tram rail_urban rail rail_electric rail_fast ship container cable_car subway aircraft wheelchair scooter drone" speed="5.83" length="6.80" shape="2394.90,986.44 2397.38,987.61 2399.07,988.66 2399.96,989.57 2400.07,990.36"/>
    </edge>
    <edge id=":10694370954_3" function="internal">
        <lane id=":10694370954_3_0" index="0" disallow="tram rail_urban rail rail_electric rail_fast ship container cable_car subway aircraft wheelchair scooter drone" speed="5.71" length="6.88" width="3.50" shape="2397.10,989.18 2397.73,988.67 2399.01,988.66 2400.95,989.16 2403.54,990.16"/>
    </edge>
    <edge id=":10694370954_4" function="internal">
        <lane id=":10694370954_4_0" index="0" disallow="tram rail_urban rail rail_electric rail_fast ship container cable_car subway aircraft wheelchair scooter drone" speed="3.65" length="4.67" shape="2397.10,989.18 2398.28,988.36 2399.17,988.28 2399.77,988.95 2400.07,990.36"/>
    </edge>
    <edge id=":10694370955_0" function="internal">
        <lane id=":10694370955_0_0" index="0" disallow="tram rail_urban rail rail_electric rail_fast ship container cable_car subway aircraft wheelchair scooter drone" speed="5.69" length="7.97" width="3.50" shape="2179.87,971.55 2179.87,970.11 2180.86,969.05 2182.84,968.37 2185.81,968.06"/>
    </edge>
    <edge id=":10694370955_1" function="internal">
        <lane id=":10694370955_1_0" index="0" disallow="tram rail_urban rail rail_electric rail_fast ship container cable_car subway aircraft wheelchair scooter drone" speed="3.65" length="4.67" shape="2179.87,971.55 2180.28,970.17 2180.93,969.55 2181.82,969.70 2182.93,970.62"/>
    </edge>
    <edge id=":10694370955_2" function="internal">
        <lane id=":10694370955_2_0" index="0" disallow="tram rail_urban rail rail_electric rail_fast ship container cable_car subway aircraft wheelchair scooter drone" speed="27.78" length="10.10" width="3.50" shape="2175.37,965.66 2178.40,965.08 2180.49,964.79 2182.60,964.66 2185.68,964.56"/>
        <lane id=":10694370955_2_1" index="1" disallow="tram rail_urban rail rail_electric rail_fast ship container cable_car subway aircraft wheelchair scooter drone" speed="27.78" length="10.10" width="3.50" shape="2176.06,969.09 2178.92,968.54 2180.90,968.27 2182.90,968.15 2185.81,968.06"/>
    </edge>
    <edge id=":10694370955_4" function="internal">
        <lane id=":10694370955_4_0" index="0" disallow="tram rail_urban rail rail_electric rail_fast ship container cable_car subway aircraft wheelchair scooter drone" speed="6.28" length="7.63" shape="2176.06,969.09 2178.76,968.73 2180.80,968.86 2182.19,969.49 2182.93,970.62"/>
    </edge>
    <edge id=":10756587092_0" function="internal">
        <lane id=":10756587092_0_0" index="0" speed="5.56" length="20.45" width="14.00" shape="2511.55,2295.12 2516.11,2299.48 2517.22,2303.23 2514.89,2306.37 2509.11,2308.90"/>
    </edge>
    <edge id=":10848050259_0" function="internal">
        <lane id=":10848050259_0_0" index="0" disallow="tram rail_urban rail rail_electric rail_fast ship container cable_car subway aircraft wheelchair scooter drone" speed="13.89" length="14.49" shape="784.72,1142.63 773.09,1133.98"/>
    </edge>
    <edge id=":10848050259_1" function="internal">
        <lane id=":10848050259_1_0" index="0" disallow="tram rail_urban rail rail_electric rail_fast ship container cable_car subway aircraft wheelchair scooter drone" speed="9.32" length="3.49" shape="784.72,1142.63 782.35,1140.07"/>
    </edge>
    <edge id=":10848050259_2" function="internal">