<?xml version="1.0" encoding="UTF-8"?>

<!-- generated on 2025-08-01 14:37:42 by Eclipse SUMO netedit Version 1.23.1
<neteditConfiguration xmlns:xsi="http://www.w3.org/2001/XMLSchema-instance" xsi:noNamespaceSchemaLocation="http://sumo.dlr.de/xsd/neteditConfiguration.xsd">

    <input>
        <sumo-net-file value="D:\Cau_giay_sumo\Phu_quoc_sumo\son_region.net.xml"/>
    </input>

    <output>
        <output-file value="D:\Cau_giay_sumo\Phu_quoc_sumo\son_region.net.xml"/>
    </output>

    <processing>
        <geometry.min-radius.fix.railways value="false"/>
        <geometry.avoid-overlap value="false"/>
        <geometry.max-grade.fix value="false"/>
        <offset.disable-normalization value="true"/>
        <lefthand value="0"/>
    </processing>

    <junctions>
        <no-turnarounds value="true"/>
        <junctions.corner-detail value="5"/>
        <junctions.limit-turn-speed value="5.50"/>
        <rectangular-lane-cut value="0"/>
    </junctions>

    <pedestrian>
        <walkingareas value="0"/>
    </pedestrian>

</neteditConfiguration>
-->

<net version="1.20" junctionCornerDetail="5" limitTurnSpeed="5.50" avoidOverlap="0" xmlns:xsi="http://www.w3.org/2001/XMLSchema-instance" xsi:noNamespaceSchemaLocation="http://sumo.dlr.de/xsd/net_file.xsd">

    <location netOffset="-386440.47,-1125087.45" convBoundary="842.53,791.49,6380.47,7845.50" origBoundary="103.957084,10.176461,104.044113,10.270228" projParameter="+proj=utm +zone=48 +ellps=WGS84 +datum=WGS84 +units=m +no_defs"/>

    <type id="highway.primary" priority="12" numLanes="2" speed="27.78" disallow="tram rail_urban rail rail_electric rail_fast ship container cable_car subway aircraft wheelchair scooter drone" oneway="0"/>
    <type id="highway.primary_link" priority="7" numLanes="1" speed="22.22" disallow="tram rail_urban rail rail_electric rail_fast ship container cable_car subway aircraft wheelchair scooter drone" oneway="0"/>
    <type id="highway.residential" priority="3" numLanes="1" speed="13.89" disallow="tram rail_urban rail rail_electric rail_fast ship container cable_car subway aircraft wheelchair scooter drone" oneway="0"/>
    <type id="highway.secondary" priority="11" numLanes="1" speed="27.78" disallow="tram rail_urban rail rail_electric rail_fast ship container cable_car subway aircraft wheelchair scooter drone" oneway="0"/>
    <type id="highway.tertiary" priority="10" numLanes="1" speed="22.22" disallow="tram rail_urban rail rail_electric rail_fast ship container cable_car subway aircraft wheelchair scooter drone" oneway="0"/>
    <type id="highway.unclassified" priority="4" numLanes="1" speed="13.89" disallow="tram rail_urban rail rail_electric rail_fast ship container cable_car subway aircraft wheelchair scooter drone" oneway="0"/>

    <edge id=":1007951117_0" function="internal">
        <lane id=":1007951117_0_0" index="0" disallow="tram rail_urban rail rail_electric rail_fast ship container cable_car subway aircraft wheelchair scooter drone" speed="25.00" length="17.34" shape="3225.94,1305.79 3222.11,1304.30 3218.04,1302.27 3214.09,1299.99 3210.66,1297.70"/>
    </edge>
    <edge id=":1007951117_1" function="internal">
        <lane id=":1007951117_1_0" index="0" disallow="tram rail_urban rail rail_electric rail_fast ship container cable_car subway aircraft wheelchair scooter drone" speed="7.02" length="11.38" shape="3225.94,1305.79 3224.40,1304.67 3223.84,1302.58 3224.25,1299.53 3225.63,1295.52"/>
    </edge>
    <edge id=":1007951117_2" function="internal">
        <lane id=":1007951117_2_0" index="0" disallow="tram rail_urban rail rail_electric rail_fast ship container cable_car subway aircraft wheelchair scooter drone" speed="3.65" length="4.67" shape="3225.94,1305.79 3225.04,1304.66 3224.90,1303.78 3225.52,1303.14 3226.91,1302.74"/>
    </edge>
    <edge id=":1007951117_3" function="internal">
        <lane id=":1007951117_3_0" index="0" disallow="tram rail_urban rail rail_electric rail_fast ship container cable_car subway aircraft wheelchair scooter drone" speed="6.07" length="9.07" shape="3212.53,1295.11 3214.81,1296.29 3216.77,1296.35 3218.41,1295.27 3219.72,1293.06"/>
    </edge>
    <edge id=":1007951117_4" function="internal">
        <lane id=":1007951117_4_0" index="0" disallow="tram rail_urban rail rail_electric rail_fast ship container cable_car subway aircraft wheelchair scooter drone" speed="25.00" length="16.34" shape="3212.53,1295.11 3215.82,1297.32 3219.45,1299.45 3223.22,1301.32 3226.91,1302.74"/>
    </edge>
    <edge id=":1007951117_5" function="internal">
        <lane id=":1007951117_5_0" index="0" disallow="tram rail_urban rail rail_electric rail_fast ship container cable_car subway aircraft wheelchair scooter drone" speed="3.65" length="4.67" shape="3212.53,1295.11 3213.04,1296.46 3212.89,1297.34 3212.10,1297.76 3210.66,1297.70"/>
    </edge>
    <edge id=":1007951117_6" function="internal">
        <lane id=":1007951117_6_0" index="0" disallow="tram rail_urban rail rail_electric rail_fast ship container cable_car subway aircraft wheelchair scooter drone" speed="9.26" length="12.90" shape="3214.86,1309.12 3215.12,1305.64 3214.51,1302.57 3213.02,1299.93 3210.66,1297.70"/>
    </edge>
    <edge id=":1007951117_7" function="internal">
        <lane id=":1007951117_7_0" index="0" disallow="tram rail_urban rail rail_electric rail_fast ship container cable_car subway aircraft wheelchair scooter drone" speed="27.78" length="16.17" shape="3214.86,1309.12 3215.82,1304.23 3216.67,1300.91 3217.82,1297.68 3219.72,1293.06"/>
        <lane id=":1007951117_7_1" index="1" disallow="tram rail_urban rail rail_electric rail_fast ship container cable_car subway aircraft wheelchair scooter drone" speed="27.78" length="16.17" shape="3218.00,1309.72 3218.93,1305.01 3219.74,1301.83 3220.85,1298.73 3222.68,1294.29"/>
        <lane id=":1007951117_7_2" index="2" disallow="tram rail_urban rail rail_electric rail_fast ship container cable_car subway aircraft wheelchair scooter drone" speed="27.78" length="16.17" shape="3221.14,1310.31 3222.03,1305.80 3222.81,1302.75 3223.88,1299.78 3225.63,1295.52"/>
    </edge>
    <edge id=":1007951117_10" function="internal">
        <lane id=":1007951117_10_0" index="0" disallow="tram rail_urban rail rail_electric rail_fast ship container cable_car subway aircraft wheelchair scooter drone" speed="6.75" length="10.69" shape="3221.14,1310.31 3222.13,1306.51 3223.42,1303.98 3225.02,1302.73 3226.91,1302.74"/>
    </edge>
    <edge id=":10694320153_0" function="internal">
        <lane id=":10694320153_0_0" index="0" disallow="tram rail_urban rail rail_electric rail_fast ship container cable_car subway aircraft wheelchair scooter drone" speed="27.78" length="9.42" shape="3209.95,4512.52 3205.07,4520.49"/>
        <lane id=":10694320153_0_1" index="1" disallow="tram rail_urban rail rail_electric rail_fast ship container cable_car subway aircraft wheelchair scooter drone" speed="27.78" length="9.42" shape="3207.23,4510.82 3202.32,4518.86"/>
        <lane id=":10694320153_0_2" index="2" disallow="tram rail_urban rail rail_electric rail_fast ship container cable_car subway aircraft wheelchair scooter drone" speed="27.78" length="9.42" shape="3204.52,4509.13 3199.56,4517.23"/>
    </edge>
    <edge id=":10694320153_3" function="internal">
        <lane id=":10694320153_3_0" index="0" disallow="tram rail_urban rail rail_electric rail_fast ship container cable_car subway aircraft wheelchair scooter drone" speed="5.75" length="7.84" shape="3204.52,4509.13 3202.81,4511.48 3201.25,4512.84 3199.84,4513.21 3198.58,4512.58"/>
    </edge>
    <edge id=":10694320153_4" function="internal">
        <lane id=":10694320153_4_0" index="0" disallow="tram rail_urban rail rail_electric rail_fast ship container cable_car subway aircraft wheelchair scooter drone" speed="7.26" length="9.56" shape="3200.77,4510.25 3202.47,4512.30 3203.29,4514.41 3203.24,4516.60 3202.32,4518.86"/>
        <lane id=":10694320153_4_1" index="1" disallow="tram rail_urban rail rail_electric rail_fast ship container cable_car subway aircraft wheelchair scooter drone" speed="6.52" length="7.54" shape="3200.77,4510.25 3201.40,4511.35 3201.41,4512.88 3200.80,4514.84 3199.56,4517.23"/>
    </edge>
    <edge id=":10694320153_6" function="internal">
        <lane id=":10694320153_6_0" index="0" disallow="tram rail_urban rail rail_electric rail_fast ship container cable_car subway aircraft wheelchair scooter drone" speed="3.65" length="4.67" shape="3200.77,4510.25 3201.10,4511.66 3200.84,4512.51 3200.00,4512.82 3198.58,4512.58"/>
    </edge>
    <edge id=":10694320154_0" function="internal">
        <lane id=":10694320154_0_0" index="0" disallow="tram rail_urban rail rail_electric rail_fast ship container cable_car subway aircraft wheelchair scooter drone" speed="6.83" length="10.38" shape="3188.53,4527.87 3186.37,4526.00 3185.36,4523.90 3185.50,4521.57 3186.81,4519.02"/>
        <lane id=":10694320154_0_1" index="1" disallow="tram rail_urban rail rail_electric rail_fast ship container cable_car subway aircraft wheelchair scooter drone" speed="6.04" length="7.88" shape="3188.53,4527.87 3187.54,4526.76 3187.36,4525.22 3187.99,4523.26 3189.42,4520.87"/>
    </edge>
    <edge id=":10694320154_2" function="internal">
        <lane id=":10694320154_2_0" index="0" disallow="tram rail_urban rail rail_electric rail_fast ship container cable_car subway aircraft wheelchair scooter drone" speed="3.65" length="4.67" shape="3188.53,4527.87 3187.95,4526.55 3188.05,4525.66 3188.82,4525.20 3190.26,4525.18"/>
    </edge>
    <edge id=":10694320154_3" function="internal">
        <lane id=":10694320154_3_0" index="0" disallow="tram rail_urban rail rail_electric rail_fast ship container cable_car subway aircraft wheelchair scooter drone" speed="27.78" length="9.74" shape="3178.73,4525.51 3184.19,4517.18"/>
        <lane id=":10694320154_3_1" index="1" disallow="tram rail_urban rail rail_electric rail_fast ship container cable_car subway aircraft wheelchair scooter drone" speed="27.78" length="9.74" shape="3181.47,4527.17 3186.81,4519.02"/>
        <lane id=":10694320154_3_2" index="2" disallow="tram rail_urban rail rail_electric rail_fast ship container cable_car subway aircraft wheelchair scooter drone" speed="27.78" length="9.74" shape="3184.21,4528.83 3189.42,4520.87"/>
    </edge>
    <edge id=":10694320154_6" function="internal">
        <lane id=":10694320154_6_0" index="0" disallow="tram rail_urban rail rail_electric rail_fast ship container cable_car subway aircraft wheelchair scooter drone" speed="6.07" length="7.87" shape="3184.21,4528.83 3185.82,4526.56 3187.36,4525.20 3188.84,4524.74 3190.26,4525.18"/>
    </edge>
    <edge id=":10694340155_0" function="internal">
        <lane id=":10694340155_0_0" index="0" disallow="tram rail_urban rail rail_electric rail_fast ship container cable_car subway aircraft wheelchair scooter drone" speed="6.15" length="7.76" shape="2119.59,4052.29 2118.63,4051.26 2118.38,4049.74 2118.83,4047.74 2120.00,4045.25"/>
    </edge>
    <edge id=":10694340155_1" function="internal">
        <lane id=":10694340155_1_0" index="0" disallow="tram rail_urban rail rail_electric rail_fast ship container cable_car subway aircraft wheelchair scooter drone" speed="3.65" length="4.67" shape="2119.59,4052.29 2118.98,4050.99 2119.04,4050.10 2119.80,4049.62 2121.24,4049.55"/>
    </edge>
    <edge id=":10694340155_2" function="internal">
        <lane id=":10694340155_2_0" index="0" disallow="tram rail_urban rail rail_electric rail_fast ship container cable_car subway aircraft wheelchair scooter drone" speed="27.78" length="9.33" shape="2112.59,4051.76 2117.21,4043.69"/>
        <lane id=":10694340155_2_1" index="1" disallow="tram rail_urban rail rail_electric rail_fast ship container cable_car subway aircraft wheelchair scooter drone" speed="27.78" length="9.33" shape="2115.35,4053.38 2120.00,4045.25"/>
    </edge>
    <edge id=":10694340155_4" function="internal">
        <lane id=":10694340155_4_0" index="0" disallow="tram rail_urban rail rail_electric rail_fast ship container cable_car subway aircraft wheelchair scooter drone" speed="6.07" length="7.78" shape="2115.35,4053.38 2116.91,4051.10 2118.42,4049.70 2119.86,4049.18 2121.24,4049.55"/>
    </edge>
    <edge id=":10694340156_0" function="internal">
        <lane id=":10694340156_0_0" index="0" disallow="tram rail_urban rail rail_electric rail_fast ship container cable_car subway aircraft wheelchair scooter drone" speed="27.78" length="9.53" shape="2021.01,4201.60 2013.95,4208.09"/>
        <lane id=":10694340156_0_1" index="1" disallow="tram rail_urban rail rail_electric rail_fast ship container cable_car subway aircraft wheelchair scooter drone" speed="27.78" length="9.53" shape="2018.79,4199.29 2011.83,4205.70"/>
    </edge>
    <edge id=":10694340156_2" function="internal">
        <lane id=":10694340156_2_0" index="0" disallow="tram rail_urban rail rail_electric rail_fast ship container cable_car subway aircraft wheelchair scooter drone" speed="6.11" length="7.84" shape="2018.79,4199.29 2016.66,4201.05 2014.82,4201.98 2013.27,4202.06 2012.01,4201.31"/>
    </edge>
    <edge id=":10694340156_3" function="internal">
        <lane id=":10694340156_3_0" index="0" disallow="tram rail_urban rail rail_electric rail_fast ship container cable_car subway aircraft wheelchair scooter drone" speed="6.04" length="7.86" shape="2014.33,4199.11 2015.02,4200.41 2014.84,4201.94 2013.77,4203.70 2011.83,4205.70"/>
    </edge>
    <edge id=":10694340156_4" function="internal">
        <lane id=":10694340156_4_0" index="0" disallow="tram rail_urban rail rail_electric rail_fast ship container cable_car subway aircraft wheelchair scooter drone" speed="3.65" length="4.67" shape="2014.33,4199.11 2014.58,4200.53 2014.28,4201.37 2013.42,4201.63 2012.01,4201.31"/>
    </edge>
    <edge id=":10694340229_0" function="internal">
        <lane id=":10694340229_0_0" index="0" disallow="tram rail_urban rail rail_electric rail_fast ship container cable_car subway aircraft wheelchair scooter drone" speed="6.79" length="10.61" shape="3052.50,2897.53 3049.56,2897.28 3047.50,2896.13 3046.30,2894.10 3045.97,2891.17"/>
        <lane id=":10694340229_0_1" index="1" disallow="tram rail_urban rail rail_electric rail_fast ship container cable_car subway aircraft wheelchair scooter drone" speed="5.99" length="8.01" shape="3052.50,2897.53 3050.97,2897.21 3049.90,2896.06 3049.30,2894.08 3049.17,2891.27"/>
    </edge>
    <edge id=":10694340229_2" function="internal">
        <lane id=":10694340229_2_0" index="0" disallow="tram rail_urban rail rail_electric rail_fast ship container cable_car subway aircraft wheelchair scooter drone" speed="3.65" length="4.67" shape="3052.50,2897.53 3051.25,2896.80 3050.81,2896.02 3051.16,2895.20 3052.31,2894.33"/>
    </edge>
    <edge id=":10694340229_3" function="internal">
        <lane id=":10694340229_3_0" index="0" disallow="tram rail_urban rail rail_electric rail_fast ship container cable_car subway aircraft wheelchair scooter drone" speed="27.78" length="9.51" shape="3042.55,2900.63 3042.77,2891.07"/>
        <lane id=":10694340229_3_1" index="1" disallow="tram rail_urban rail rail_electric rail_fast ship container cable_car subway aircraft wheelchair scooter drone" speed="27.78" length="9.51" shape="3045.75,2900.68 3045.97,2891.17"/>
        <lane id=":10694340229_3_2" index="2" disallow="tram rail_urban rail rail_electric rail_fast ship container cable_car subway aircraft wheelchair scooter drone" speed="27.78" length="9.51" shape="3048.95,2900.72 3049.17,2891.27"/>
    </edge>
    <edge id=":10694340229_6" function="internal">
        <lane id=":10694340229_6_0" index="0" disallow="tram rail_urban rail rail_electric rail_fast ship container cable_car subway aircraft wheelchair scooter drone" speed="6.29" length="7.93" shape="3048.95,2900.72 3049.19,2898.00 3049.83,2896.02 3050.87,2894.80 3052.31,2894.33"/>
    </edge>
    <edge id=":10694340230_0" function="internal">
        <lane id=":10694340230_0_0" index="0" disallow="tram rail_urban rail rail_electric rail_fast ship container cable_car subway aircraft wheelchair scooter drone" speed="27.78" length="9.38" shape="3063.05,2891.06 3063.09,2900.42"/>
        <lane id=":10694340230_0_1" index="1" disallow="tram rail_urban rail rail_electric rail_fast ship container cable_car subway aircraft wheelchair scooter drone" speed="27.78" length="9.38" shape="3059.85,2891.07 3059.89,2900.44"/>
        <lane id=":10694340230_0_2" index="2" disallow="tram rail_urban rail rail_electric rail_fast ship container cable_car subway aircraft wheelchair scooter drone" speed="27.78" length="9.38" shape="3056.65,2891.07 3056.69,2900.47"/>
    </edge>
    <edge id=":10694340230_3" function="internal">
        <lane id=":10694340230_3_0" index="0" disallow="tram rail_urban rail rail_electric rail_fast ship container cable_car subway aircraft wheelchair scooter drone" speed="6.23" length="7.83" shape="3056.65,2891.07 3056.45,2893.80 3055.86,2895.78 3054.87,2897.00 3053.49,2897.47"/>
    </edge>
    <edge id=":10694340230_4" function="internal">
        <lane id=":10694340230_4_0" index="0" disallow="tram rail_urban rail rail_electric rail_fast ship container cable_car subway aircraft wheelchair scooter drone" speed="6.82" length="10.41" shape="3053.30,2894.28 3056.17,2894.52 3058.22,2895.63 3059.46,2897.60 3059.89,2900.44"/>
        <lane id=":10694340230_4_1" index="1" disallow="tram rail_urban rail rail_electric rail_fast ship container cable_car subway aircraft wheelchair scooter drone" speed="6.03" length="7.90" shape="3053.30,2894.28 3054.77,2894.59 3055.82,2895.73 3056.46,2897.69 3056.69,2900.47"/>
    </edge>
    <edge id=":10694340230_6" function="internal">
        <lane id=":10694340230_6_0" index="0" disallow="tram rail_urban rail rail_electric rail_fast ship container cable_car subway aircraft wheelchair scooter drone" speed="3.65" length="4.67" shape="3053.30,2894.28 3054.55,2895.00 3054.99,2895.78 3054.64,2896.60 3053.49,2897.47"/>
    </edge>
    <edge id=":10694350771_0" function="internal">
        <lane id=":10694350771_0_0" index="0" disallow="tram rail_urban rail rail_electric rail_fast ship container cable_car subway aircraft wheelchair scooter drone" speed="6.02" length="7.94" shape="2226.88,3891.04 2226.18,3889.69 2226.39,3888.15 2227.51,3886.41 2229.55,3884.49"/>
    </edge>
    <edge id=":10694350771_1" function="internal">
        <lane id=":10694350771_1_0" index="0" disallow="tram rail_urban rail rail_electric rail_fast ship container cable_car subway aircraft wheelchair scooter drone" speed="3.65" length="4.67" shape="2226.88,3891.04 2226.65,3889.61 2226.97,3888.77 2227.83,3888.53 2229.23,3888.87"/>
    </edge>
    <edge id=":10694350771_2" function="internal">
        <lane id=":10694350771_2_0" index="0" disallow="tram rail_urban rail rail_electric rail_fast ship container cable_car subway aircraft wheelchair scooter drone" speed="27.78" length="9.63" shape="2220.18,3888.39 2227.53,3882.00"/>
        <lane id=":10694350771_2_1" index="1" disallow="tram rail_urban rail rail_electric rail_fast ship container cable_car subway aircraft wheelchair scooter drone" speed="27.78" length="9.63" shape="2222.36,3890.73 2229.55,3884.49"/>
    </edge>
    <edge id=":10694350771_4" function="internal">
        <lane id=":10694350771_4_0" index="0" disallow="tram rail_urban rail rail_electric rail_fast ship container cable_car subway aircraft wheelchair scooter drone" speed="6.12" length="7.91" shape="2222.36,3890.73 2224.52,3889.00 2226.39,3888.11 2227.95,3888.07 2229.23,3888.87"/>
    </edge>
    <edge id=":10694350772_0" function="internal">
        <lane id=":10694350772_0_0" index="0" disallow="tram rail_urban rail rail_electric rail_fast ship container cable_car subway aircraft wheelchair scooter drone" speed="27.78" length="9.32" shape="2237.52,3893.58 2230.53,3899.67"/>
        <lane id=":10694350772_0_1" index="1" disallow="tram rail_urban rail rail_electric rail_fast ship container cable_car subway aircraft wheelchair scooter drone" speed="27.78" length="9.32" shape="2235.45,3891.13 2228.39,3897.29"/>
    </edge>
    <edge id=":10694350772_2" function="internal">
        <lane id=":10694350772_2_0" index="0" disallow="tram rail_urban rail rail_electric rail_fast ship container cable_car subway aircraft wheelchair scooter drone" speed="6.17" length="7.76" shape="2235.45,3891.13 2233.24,3892.76 2231.36,3893.59 2229.81,3893.64 2228.60,3892.91"/>
    </edge>
    <edge id=":10694350772_3" function="internal">
        <lane id=":10694350772_3_0" index="0" disallow="tram rail_urban rail rail_electric rail_fast ship container cable_car subway aircraft wheelchair scooter drone" speed="6.07" length="7.80" shape="2230.95,3890.73 2231.60,3892.02 2231.39,3893.54 2230.32,3895.29 2228.39,3897.29"/>
    </edge>
    <edge id=":10694350772_4" function="internal">
        <lane id=":10694350772_4_0" index="0" disallow="tram rail_urban rail rail_electric rail_fast ship container cable_car subway aircraft wheelchair scooter drone" speed="3.65" length="4.67" shape="2230.95,3890.73 2231.18,3892.16 2230.86,3893.00 2230.00,3893.24 2228.60,3892.91"/>
    </edge>
    <edge id=":10694350773_0" function="internal">
        <lane id=":10694350773_0_0" index="0" disallow="tram rail_urban rail rail_electric rail_fast ship container cable_car subway aircraft wheelchair scooter drone" speed="6.08" length="7.77" shape="2299.83,3831.62 2299.25,3830.33 2299.51,3828.82 2300.63,3827.10 2302.61,3825.17"/>
    </edge>
    <edge id=":10694350773_1" function="internal">
        <lane id=":10694350773_1_0" index="0" disallow="tram rail_urban rail rail_electric rail_fast ship container cable_car subway aircraft wheelchair scooter drone" speed="3.65" length="4.67" shape="2299.83,3831.62 2299.66,3830.19 2300.01,3829.36 2300.87,3829.15 2302.26,3829.54"/>
    </edge>
    <edge id=":10694350773_2" function="internal">
        <lane id=":10694350773_2_0" index="0" disallow="tram rail_urban rail rail_electric rail_fast ship container cable_car subway aircraft wheelchair scooter drone" speed="27.78" length="9.32" shape="2293.39,3828.66 2300.54,3822.73"/>
        <lane id=":10694350773_2_1" index="1" disallow="tram rail_urban rail rail_electric rail_fast ship container cable_car subway aircraft wheelchair scooter drone" speed="27.78" length="9.32" shape="2295.40,3831.15 2302.61,3825.17"/>
    </edge>
    <edge id=":10694350773_4" function="internal">
        <lane id=":10694350773_4_0" index="0" disallow="tram rail_urban rail rail_electric rail_fast ship container cable_car subway aircraft wheelchair scooter drone" speed="6.14" length="7.75" shape="2295.40,3831.15 2297.66,3829.57 2299.55,3828.77 2301.09,3828.76 2302.26,3829.54"/>
    </edge>
    <edge id=":10694350774_0" function="internal">
        <lane id=":10694350774_0_0" index="0" disallow="tram rail_urban rail rail_electric rail_fast ship container cable_car subway aircraft wheelchair scooter drone" speed="27.78" length="9.40" shape="2309.14,3832.83 2301.97,3838.91"/>
        <lane id=":10694350774_0_1" index="1" disallow="tram rail_urban rail rail_electric rail_fast ship container cable_car subway aircraft wheelchair scooter drone" speed="27.78" length="9.40" shape="2307.07,3830.39 2299.90,3836.47"/>
    </edge>
    <edge id=":10694350774_2" function="internal">
        <lane id=":10694350774_2_0" index="0" disallow="tram rail_urban rail rail_electric rail_fast ship container cable_car subway aircraft wheelchair scooter drone" speed="6.09" length="7.76" shape="2307.07,3830.39 2304.84,3832.02 2302.96,3832.85 2301.43,3832.88 2300.25,3832.10"/>
    </edge>
    <edge id=":10694350774_3" function="internal">
        <lane id=":10694350774_3_0" index="0" disallow="tram rail_urban rail rail_electric rail_fast ship container cable_car subway aircraft wheelchair scooter drone" speed="6.08" length="7.77" shape="2302.67,3830.02 2303.26,3831.31 2303.00,3832.82 2301.88,3834.54 2299.90,3836.47"/>
    </edge>
    <edge id=":10694350774_4" function="internal">
        <lane id=":10694350774_4_0" index="0" disallow="tram rail_urban rail rail_electric rail_fast ship container cable_car subway aircraft wheelchair scooter drone" speed="3.65" length="4.67" shape="2302.67,3830.02 2302.85,3831.45 2302.50,3832.27 2301.63,3832.49 2300.25,3832.10"/>
    </edge>
    <edge id=":10694350775_0" function="internal">
        <lane id=":10694350775_0_0" index="0" disallow="tram rail_urban rail rail_electric rail_fast ship container cable_car subway aircraft wheelchair scooter drone" speed="5.93" length="8.24" shape="2504.74,3672.44 2504.03,3670.90 2504.35,3669.34 2505.69,3667.75 2508.07,3666.14"/>
    </edge>
    <edge id=":10694350775_1" function="internal">
        <lane id=":10694350775_1_0" index="0" disallow="tram rail_urban rail rail_electric rail_fast ship container cable_car subway aircraft wheelchair scooter drone" speed="3.65" length="4.67" shape="2504.74,3672.44 2504.61,3671.01 2504.99,3670.19 2505.86,3670.01 2507.23,3670.44"/>
    </edge>
    <edge id=":10694350775_2" function="internal">
        <lane id=":10694350775_2_0" index="0" disallow="tram rail_urban rail rail_electric rail_fast ship container cable_car subway aircraft wheelchair scooter drone" speed="27.78" length="9.61" shape="2498.16,3668.26 2506.50,3663.35"/>
        <lane id=":10694350775_2_1" index="1" disallow="tram rail_urban rail rail_electric rail_fast ship container cable_car subway aircraft wheelchair scooter drone" speed="27.78" length="9.61" shape="2499.85,3670.98 2508.07,3666.14"/>
    </edge>
    <edge id=":10694350775_4" function="internal">
        <lane id=":10694350775_4_0" index="0" disallow="tram rail_urban rail rail_electric rail_fast ship container cable_car subway aircraft wheelchair scooter drone" speed="6.47" length="8.10" shape="2499.85,3670.98 2502.27,3669.73 2504.30,3669.22 2505.96,3669.46 2507.23,3670.44"/>
    </edge>
    <edge id=":10694370954_0" function="internal">
        <lane id=":10694370954_0_0" index="0" disallow="tram rail_urban rail rail_electric rail_fast ship container cable_car subway aircraft wheelchair scooter drone" speed="27.78" length="9.89" shape="1225.07,4445.96 1227.90,4446.97 1229.81,4447.73 1231.66,4448.62 1234.32,4450.02"/>
        <lane id=":10694370954_0_1" index="1" disallow="tram rail_urban rail rail_electric rail_fast ship container cable_car subway aircraft wheelchair scooter drone" speed="27.78" length="9.89" shape="1224.00,4448.97 1226.70,4449.94 1228.52,4450.66 1230.29,4451.51 1232.82,4452.85"/>
    </edge>
    <edge id=":10694370954_2" function="internal">
        <lane id=":10694370954_2_0" index="0" disallow="tram rail_urban rail rail_electric rail_fast ship container cable_car subway aircraft wheelchair scooter drone" speed="5.71" length="7.13" shape="1224.00,4448.97 1226.61,4450.03 1228.35,4451.06 1229.22,4452.06 1229.23,4453.03"/>
    </edge>
    <edge id=":10694370954_3" function="internal">
        <lane id=":10694370954_3_0" index="0" disallow="tram rail_urban rail rail_electric rail_fast ship container cable_car subway aircraft wheelchair scooter drone" speed="5.73" length="7.11" shape="1226.30,4451.72 1227.03,4451.08 1228.36,4451.06 1230.29,4451.64 1232.82,4452.85"/>
    </edge>
    <edge id=":10694370954_4" function="internal">
        <lane id=":10694370954_4_0" index="0" disallow="tram rail_urban rail rail_electric rail_fast ship container cable_car subway aircraft wheelchair scooter drone" speed="3.65" length="4.67" shape="1226.30,4451.72 1227.52,4450.95 1228.42,4450.91 1228.99,4451.61 1229.23,4453.03"/>
    </edge>
    <edge id=":1166229489_0" function="internal">
        <lane id=":1166229489_0_0" index="0" disallow="tram rail_urban rail rail_electric rail_fast ship container cable_car subway aircraft wheelchair scooter drone" speed="9.09" length="13.30" shape="1436.04,5429.85 1434.02,5428.51 1431.24,5428.10 1427.72,5428.61 1423.44,5430.05"/>
    </edge>
    <edge id=":1166229489_1" function="internal">
        <lane id=":1166229489_1_0" index="0" disallow="tram rail_urban rail rail_electric rail_fast ship container cable_car subway aircraft wheelchair scooter drone" speed="27.78" length="16.25" width="4.50" shape="1436.04,5429.85 1433.19,5427.14 1429.91,5424.57 1426.45,5422.19 1423.12,5420.07"/>
    </edge>
    <edge id=":1166229489_2" function="internal">
        <lane id=":1166229489_2_0" index="0" disallow="tram rail_urban rail rail_electric rail_fast ship container cable_car subway aircraft wheelchair scooter drone" speed="9.92" length="3.96" shape="1436.04,5429.85 1434.39,5427.13 1434.27,5426.37"/>
    </edge>
    <edge id=":1166229489_3" function="internal">
        <lane id=":1166229489_3_0" index="0" disallow="tram rail_urban rail rail_electric rail_fast ship container cable_car subway aircraft wheelchair scooter drone" speed="4.33" length="2.25" width="4.50" shape="1436.04,5429.85 1435.73,5427.85 1435.81,5427.64"/>
    </edge>
    <edge id=":1166229489_16" function="internal">
        <lane id=":1166229489_16_0" index="0" disallow="tram rail_urban rail rail_electric rail_fast ship container cable_car subway aircraft wheelchair scooter drone" speed="9.92" length="11.42" shape="1434.27,5426.37 1433.86,5423.80 1434.45,5419.87 1436.17,5415.34"/>
    </edge>
    <edge id=":1166229489_17" function="internal">
        <lane id=":1166229489_17_0" index="0" disallow="tram rail_urban rail rail_electric rail_fast ship container cable_car subway aircraft wheelchair scooter drone" speed="4.33" length="4.32" width="4.50" shape="1435.81,5427.64 1436.18,5426.68 1437.39,5426.33 1439.36,5426.82"/>
    </edge>
    <edge id=":1166229489_4" function="internal">