<?xml version="1.0" encoding="UTF-8"?>

<!-- generated on 2025-08-15 15:57:01 by Eclipse SUMO netedit Version 1.24.0
<neteditConfiguration xmlns:xsi="http://www.w3.org/2001/XMLSchema-instance" xsi:noNamespaceSchemaLocation="http://sumo.dlr.de/xsd/neteditConfiguration.xsd">

    <input>
        <sumo-net-file value="E:\VTS\ITS\Choose ATSC\Software\choose_ATSC_PBIL\data\input\sumo\PhuQuoc\son_region_fix.net.xml"/>
    </input>

    <output>
        <output-file value="E:\VTS\ITS\Choose ATSC\Software\choose_ATSC_PBIL\data\input\sumo\PhuQuoc\son_region_fix.net.xml"/>
    </output>

    <processing>
        <geometry.min-radius.fix.railways value="false"/>
        <geometry.avoid-overlap value="false"/>
        <geometry.max-grade.fix value="false"/>
        <offset.disable-normalization value="true"/>
        <lefthand value="0"/>
    </processing>

    <junctions>
        <no-turnarounds value="true"/>
        <junctions.corner-detail value="5"/>
        <junctions.limit-turn-speed value="5.50"/>
        <rectangular-lane-cut value="0"/>
    </junctions>

    <pedestrian>
        <walkingareas value="0"/>
    </pedestrian>

</neteditConfiguration>
-->

<net version="1.20" junctionCornerDetail="5" limitTurnSpeed="5.50" avoidOverlap="0" xmlns:xsi="http://www.w3.org/2001/XMLSchema-instance" xsi:noNamespaceSchemaLocation="http://sumo.dlr.de/xsd/net_file.xsd">

    <location netOffset="-386440.47,-1125087.45" convBoundary="3031.92,791.49,6380.47,7845.50" origBoundary="103.957084,10.176461,104.044113,10.270228" projParameter="+proj=utm +zone=48 +ellps=WGS84 +datum=WGS84 +units=m +no_defs"/>

    <type id="highway.primary" priority="12" numLanes="2" speed="27.78" disallow="tram rail_urban rail rail_electric rail_fast ship container cable_car subway aircraft wheelchair scooter drone" oneway="0"/>
    <type id="highway.primary_link" priority="7" numLanes="1" speed="22.22" disallow="tram rail_urban rail rail_electric rail_fast ship container cable_car subway aircraft wheelchair scooter drone" oneway="0"/>
    <type id="highway.residential" priority="3" numLanes="1" speed="13.89" disallow="tram rail_urban rail rail_electric rail_fast ship container cable_car subway aircraft wheelchair scooter drone" oneway="0"/>
    <type id="highway.secondary" priority="11" numLanes="1" speed="27.78" disallow="tram rail_urban rail rail_electric rail_fast ship container cable_car subway aircraft wheelchair scooter drone" oneway="0"/>

    <edge id=":6082322798_0" function="internal">
        <lane id=":6082322798_0_0" index="0" disallow="tram rail_urban rail rail_electric rail_fast ship container cable_car subway aircraft wheelchair scooter drone" speed="8.03" length="13.62" shape="3559.30,1030.85 3557.46,1027.73 3557.05,1024.69 3558.06,1021.71 3560.48,1018.80"/>
        <lane id=":6082322798_0_1" index="1" disallow="tram rail_urban rail rail_electric rail_fast ship container cable_car subway aircraft wheelchair scooter drone" speed="7.37" length="11.31" shape="3559.30,1030.85 3558.35,1028.82 3558.60,1026.52 3560.03,1023.97 3562.64,1021.16"/>
    </edge>
    <edge id=":6082322798_2" function="internal">
        <lane id=":6082322798_2_0" index="0" disallow="tram rail_urban rail rail_electric rail_fast ship container cable_car subway aircraft wheelchair scooter drone" speed="3.65" length="4.67" shape="3559.30,1030.85 3559.17,1029.41 3559.54,1028.60 3560.41,1028.40 3561.79,1028.83"/>
    </edge>
    <edge id=":6082322798_3" function="internal">
        <lane id=":6082322798_3_0" index="0" disallow="tram rail_urban rail rail_electric rail_fast ship container cable_car subway aircraft wheelchair scooter drone" speed="27.78" length="13.50" shape="3548.08,1024.22 3551.32,1022.19 3553.48,1020.69 3555.49,1019.02 3558.32,1016.44"/>
        <lane id=":6082322798_3_1" index="1" disallow="tram rail_urban rail rail_electric rail_fast ship container cable_car subway aircraft wheelchair scooter drone" speed="27.78" length="13.50" shape="3549.76,1026.94 3553.16,1024.82 3555.41,1023.25 3557.52,1021.49 3560.48,1018.80"/>
        <lane id=":6082322798_3_2" index="2" disallow="tram rail_urban rail rail_electric rail_fast ship container cable_car subway aircraft wheelchair scooter drone" speed="27.78" length="13.50" shape="3551.44,1029.67 3554.99,1027.45 3557.34,1025.81 3559.55,1023.97 3562.64,1021.16"/>
    </edge>
    <edge id=":6082322798_6" function="internal">
        <lane id=":6082322798_6_0" index="0" disallow="tram rail_urban rail rail_electric rail_fast ship container cable_car subway aircraft wheelchair scooter drone" speed="7.56" length="11.33" shape="3551.44,1029.67 3554.85,1027.91 3557.70,1027.19 3560.02,1027.50 3561.79,1028.83"/>
    </edge>
    <edge id=":6082322801_0" function="internal">
        <lane id=":6082322801_0_0" index="0" disallow="tram rail_urban rail rail_electric rail_fast ship container cable_car subway aircraft wheelchair scooter drone" speed="27.78" length="10.40" shape="3570.53,1034.02 3568.09,1036.20 3566.33,1037.60 3564.45,1038.83 3561.63,1040.50"/>
        <lane id=":6082322801_0_1" index="1" disallow="tram rail_urban rail rail_electric rail_fast ship container cable_car subway aircraft wheelchair scooter drone" speed="27.78" length="10.40" shape="3568.39,1031.64 3566.08,1033.69 3564.43,1035.01 3562.66,1036.17 3560.01,1037.75"/>
        <lane id=":6082322801_0_2" index="2" disallow="tram rail_urban rail rail_electric rail_fast ship container cable_car subway aircraft wheelchair scooter drone" speed="27.78" length="10.40" shape="3566.24,1029.27 3564.08,1031.19 3562.53,1032.43 3560.87,1033.51 3558.38,1034.99"/>
    </edge>
    <edge id=":6082322801_3" function="internal">
        <lane id=":6082322801_3_0" index="0" disallow="tram rail_urban rail rail_electric rail_fast ship container cable_car subway aircraft wheelchair scooter drone" speed="6.01" length="7.86" shape="3566.24,1029.27 3564.03,1030.99 3562.16,1031.85 3560.63,1031.85 3559.42,1031.00"/>
    </edge>
    <edge id=":6082322801_4" function="internal">
        <lane id=":6082322801_4_0" index="0" disallow="tram rail_urban rail rail_electric rail_fast ship container cable_car subway aircraft wheelchair scooter drone" speed="6.67" length="10.60" shape="3561.91,1028.99 3563.36,1031.48 3563.53,1033.76 3562.41,1035.85 3560.01,1037.75"/>
        <lane id=":6082322801_4_1" index="1" disallow="tram rail_urban rail rail_electric rail_fast ship container cable_car subway aircraft wheelchair scooter drone" speed="5.86" length="7.92" shape="3561.91,1028.99 3562.50,1030.36 3562.10,1031.82 3560.73,1033.36 3558.38,1034.99"/>
    </edge>
    <edge id=":6082322801_6" function="internal">
        <lane id=":6082322801_6_0" index="0" disallow="tram rail_urban rail rail_electric rail_fast ship container cable_car subway aircraft wheelchair scooter drone" speed="3.65" length="4.67" shape="3561.91,1028.99 3562.04,1030.43 3561.67,1031.24 3560.80,1031.43 3559.42,1031.00"/>
    </edge>
    <edge id=":6766002711_0" function="internal">
        <lane id=":6766002711_0_0" index="0" disallow="tram rail_urban rail rail_electric rail_fast ship container cable_car subway aircraft wheelchair scooter drone" speed="27.78" length="9.50" shape="3299.25,1780.27 3296.66,1771.06"/>
        <lane id=":6766002711_0_1" index="1" disallow="tram rail_urban rail rail_electric rail_fast ship container cable_car subway aircraft wheelchair scooter drone" speed="27.78" length="9.50" shape="3302.33,1779.38 3299.75,1770.23"/>
        <lane id=":6766002711_0_2" index="2" disallow="tram rail_urban rail rail_electric rail_fast ship container cable_car subway aircraft wheelchair scooter drone" speed="27.78" length="9.50" shape="3305.40,1778.48 3302.84,1769.39"/>
    </edge>
    <edge id=":6766002711_3" function="internal">
        <lane id=":6766002711_3_0" index="0" disallow="tram rail_urban rail rail_electric rail_fast ship container cable_car subway aircraft wheelchair scooter drone" speed="6.02" length="7.92" shape="3305.40,1778.48 3304.82,1775.74 3304.88,1773.68 3305.57,1772.29 3306.90,1771.58"/>
    </edge>
    <edge id=":6766002711_4" function="internal">
        <lane id=":6766002711_4_0" index="0" disallow="tram rail_urban rail rail_electric rail_fast ship container cable_car subway aircraft wheelchair scooter drone" speed="6.98" length="10.23" shape="3307.62,1774.70 3304.77,1774.96 3302.52,1774.30 3300.84,1772.72 3299.75,1770.23"/>
        <lane id=":6766002711_4_1" index="1" disallow="tram rail_urban rail rail_electric rail_fast ship container cable_car subway aircraft wheelchair scooter drone" speed="6.20" length="7.87" shape="3307.62,1774.70 3306.14,1774.64 3304.85,1773.73 3303.75,1771.98 3302.84,1769.39"/>
    </edge>
    <edge id=":6766002711_6" function="internal">
        <lane id=":6766002711_6_0" index="0" disallow="tram rail_urban rail rail_electric rail_fast ship container cable_car subway aircraft wheelchair scooter drone" speed="3.65" length="4.67" shape="3307.62,1774.70 3306.27,1774.18 3305.70,1773.49 3305.91,1772.62 3306.90,1771.58"/>
    </edge>
    <edge id=":6766002712_0" function="internal">
        <lane id=":6766002712_0_0" index="0" disallow="tram rail_urban rail rail_electric rail_fast ship container cable_car subway aircraft wheelchair scooter drone" speed="27.78" length="9.40" shape="3316.55,1765.72 3319.17,1774.73"/>
        <lane id=":6766002712_0_1" index="1" disallow="tram rail_urban rail rail_electric rail_fast ship container cable_car subway aircraft wheelchair scooter drone" speed="27.78" length="9.40" shape="3313.47,1766.61 3316.10,1775.63"/>
        <lane id=":6766002712_0_2" index="2" disallow="tram rail_urban rail rail_electric rail_fast ship container cable_car subway aircraft wheelchair scooter drone" speed="27.78" length="9.40" shape="3310.40,1767.50 3313.03,1776.53"/>
    </edge>
    <edge id=":6766002712_3" function="internal">
        <lane id=":6766002712_3_0" index="0" disallow="tram rail_urban rail rail_electric rail_fast ship container cable_car subway aircraft wheelchair scooter drone" speed="6.02" length="7.92" shape="3310.40,1767.50 3310.97,1770.24 3310.91,1772.30 3310.22,1773.69 3308.89,1774.40"/>
    </edge>
    <edge id=":6766002712_4" function="internal">
        <lane id=":6766002712_4_0" index="0" disallow="tram rail_urban rail rail_electric rail_fast ship container cable_car subway aircraft wheelchair scooter drone" speed="7.01" length="10.18" shape="3308.18,1771.28 3311.01,1771.02 3313.27,1771.65 3314.97,1773.19 3316.10,1775.63"/>
        <lane id=":6766002712_4_1" index="1" disallow="tram rail_urban rail rail_electric rail_fast ship container cable_car subway aircraft wheelchair scooter drone" speed="6.24" length="7.85" shape="3308.18,1771.28 3309.65,1771.34 3310.95,1772.24 3312.07,1773.97 3313.03,1776.53"/>
    </edge>
    <edge id=":6766002712_6" function="internal">
        <lane id=":6766002712_6_0" index="0" disallow="tram rail_urban rail rail_electric rail_fast ship container cable_car subway aircraft wheelchair scooter drone" speed="3.65" length="4.67" shape="3308.18,1771.28 3309.53,1771.79 3310.10,1772.48 3309.88,1773.35 3308.89,1774.40"/>
    </edge>
    <edge id=":6766002741_0" function="internal">
        <lane id=":6766002741_0_0" index="0" disallow="tram rail_urban rail rail_electric rail_fast ship container cable_car subway aircraft wheelchair scooter drone" speed="7.59" length="13.30" shape="3178.68,2626.96 3175.85,2623.73 3174.53,2620.76 3174.74,2618.03 3176.48,2615.57"/>
        <lane id=":6766002741_0_1" index="1" disallow="tram rail_urban rail rail_electric rail_fast ship container cable_car subway aircraft wheelchair scooter drone" speed="6.81" length="10.50" shape="3178.68,2626.96 3176.86,2624.70 3176.25,2622.43 3176.85,2620.17 3178.67,2617.90"/>
        <lane id=":6766002741_0_2" index="2" disallow="tram rail_urban rail rail_electric rail_fast ship container cable_car subway aircraft wheelchair scooter drone" speed="6.01" length="7.95" shape="3178.68,2626.96 3177.88,2625.66 3177.97,2624.11 3178.97,2622.30 3180.86,2620.23"/>
    </edge>
    <edge id=":6766002741_3" function="internal">
        <lane id=":6766002741_3_0" index="0" disallow="tram rail_urban rail rail_electric rail_fast ship container cable_car subway aircraft wheelchair scooter drone" speed="3.65" length="4.67" shape="3178.68,2626.96 3178.35,2625.56 3178.60,2624.70 3179.44,2624.39 3180.86,2624.62"/>
    </edge>
    <edge id=":6766002742_0" function="internal">
        <lane id=":6766002742_0_0" index="0" disallow="tram rail_urban rail rail_electric rail_fast ship container cable_car subway aircraft wheelchair scooter drone" speed="7.69" length="12.48" shape="3191.33,2630.75 3189.05,2632.13 3186.46,2632.22 3183.56,2631.01 3180.34,2628.50"/>
    </edge>
    <edge id=":6766002742_1" function="internal">
        <lane id=":6766002742_1_0" index="0" disallow="tram rail_urban rail rail_electric rail_fast ship container cable_car subway aircraft wheelchair scooter drone" speed="3.65" length="4.67" shape="3182.52,2626.16 3182.85,2627.56 3182.60,2628.42 3181.76,2628.74 3180.34,2628.50"/>
    </edge>
    <edge id=":7167343602_0" function="internal">
        <lane id=":7167343602_0_0" index="0" disallow="tram rail_urban rail rail_electric rail_fast ship container cable_car subway aircraft wheelchair scooter drone" speed="27.78" length="0.10" shape="3082.62,1103.96 3082.68,1104.01"/>
    </edge>
    <edge id=":7167343602_1" function="internal">
        <lane id=":7167343602_1_0" index="0" disallow="tram rail_urban rail rail_electric rail_fast ship container cable_car subway aircraft wheelchair scooter drone" speed="3.65" length="2.34" shape="3082.62,1103.96 3082.40,1102.53 3082.71,1101.69"/>
    </edge>
    <edge id=":7167343602_4" function="internal">
        <lane id=":7167343602_4_0" index="0" disallow="tram rail_urban rail rail_electric rail_fast ship container cable_car subway aircraft wheelchair scooter drone" speed="3.65" length="2.34" shape="3082.71,1101.69 3083.57,1101.45 3084.98,1101.78"/>
    </edge>
    <edge id=":7167343602_2" function="internal">
        <lane id=":7167343602_2_0" index="0" disallow="tram rail_urban rail rail_electric rail_fast ship container cable_car subway aircraft wheelchair scooter drone" speed="27.78" length="0.10" shape="3084.92,1101.73 3084.98,1101.78"/>
    </edge>
    <edge id=":7167343602_3" function="internal">
        <lane id=":7167343602_3_0" index="0" disallow="tram rail_urban rail rail_electric rail_fast ship container cable_car subway aircraft wheelchair scooter drone" speed="3.65" length="2.34" shape="3084.92,1101.73 3085.22,1103.14 3084.94,1103.99"/>
    </edge>
    <edge id=":7167343602_5" function="internal">
        <lane id=":7167343602_5_0" index="0" disallow="tram rail_urban rail rail_electric rail_fast ship container cable_car subway aircraft wheelchair scooter drone" speed="3.65" length="2.34" shape="3084.94,1103.99 3084.09,1104.28 3082.68,1104.01"/>
    </edge>
    <edge id=":7167410606_0" function="internal">
        <lane id=":7167410606_0_0" index="0" disallow="tram rail_urban rail rail_electric rail_fast ship container cable_car subway aircraft wheelchair scooter drone" speed="27.78" length="0.43" shape="3392.16,2030.03 3392.22,2030.24 3392.25,2030.38 3392.28,2030.52 3392.32,2030.73"/>
        <lane id=":7167410606_0_1" index="1" disallow="tram rail_urban rail rail_electric rail_fast ship container cable_car subway aircraft wheelchair scooter drone" speed="27.78" length="0.43" shape="3389.07,2030.86 3389.11,2030.99 3389.13,2031.07 3389.14,2031.16 3389.17,2031.28"/>
        <lane id=":7167410606_0_2" index="2" disallow="tram rail_urban rail rail_electric rail_fast ship container cable_car subway aircraft wheelchair scooter drone" speed="27.78" length="0.43" shape="3385.98,2031.69 3385.99,2031.73 3386.00,2031.76 3386.01,2031.79 3386.01,2031.83"/>
    </edge>
    <edge id=":7940629349_0" function="internal">
        <lane id=":7940629349_0_0" index="0" disallow="tram rail_urban rail rail_electric rail_fast ship container cable_car subway aircraft wheelchair scooter drone" speed="3.65" length="4.67" shape="3030.77,1050.50 3030.51,1049.08 3030.81,1048.24 3031.67,1047.97 3033.07,1048.28"/>
    </edge>
    <edge id=":cluster1007951117_4750234625_6766002710_0" function="internal">
        <lane id=":cluster1007951117_4750234625_6766002710_0_0" index="0" disallow="tram rail_urban rail rail_electric rail_fast ship container cable_car subway aircraft wheelchair scooter drone" speed="27.78" length="10.91" shape="3238.09,1302.38 3236.90,1305.16 3236.19,1307.11 3235.68,1309.13 3235.13,1312.10"/>
        <lane id=":cluster1007951117_4750234625_6766002710_0_1" index="1" disallow="tram rail_urban rail rail_electric rail_fast ship container cable_car subway aircraft wheelchair scooter drone" speed="27.78" length="10.91" shape="3235.14,1301.15 3233.87,1304.13 3233.10,1306.21 3232.57,1308.37 3231.98,1311.55"/>
        <lane id=":cluster1007951117_4750234625_6766002710_0_2" index="2" disallow="tram rail_urban rail rail_electric rail_fast ship container cable_car subway aircraft wheelchair scooter drone" speed="27.78" length="10.91" shape="3232.19,1299.92 3230.83,1303.09 3230.02,1305.31 3229.45,1307.60 3228.83,1310.99"/>
    </edge>
    <edge id=":cluster1007951117_4750234625_6766002710_3" function="internal">
        <lane id=":cluster1007951117_4750234625_6766002710_3_0" index="0" disallow="tram rail_urban rail rail_electric rail_fast ship container cable_car subway aircraft wheelchair scooter drone" speed="11.41" length="9.22" shape="3232.19,1299.92 3227.25,1304.79 3224.97,1304.53"/>
    </edge>
    <edge id=":cluster1007951117_4750234625_6766002710_11" function="internal">
        <lane id=":cluster1007951117_4750234625_6766002710_11_0" index="0" disallow="tram rail_urban rail rail_electric rail_fast ship container cable_car subway aircraft wheelchair scooter drone" speed="11.41" length="27.84" shape="3224.97,1304.53 3220.01,1303.96 3211.13,1298.88 3201.31,1290.97"/>
    </edge>
    <edge id=":cluster1007951117_4750234625_6766002710_4" function="internal">
        <lane id=":cluster1007951117_4750234625_6766002710_4_0" index="0" disallow="tram rail_urban rail rail_electric rail_fast ship container cable_car subway aircraft wheelchair scooter drone" speed="8.22" length="18.78" shape="3203.41,1288.57 3209.39,1293.31 3214.00,1295.88 3217.25,1296.28 3219.13,1294.49"/>
    </edge>
    <edge id=":cluster1007951117_4750234625_6766002710_5" function="internal">
        <lane id=":cluster1007951117_4750234625_6766002710_5_0" index="0" disallow="tram rail_urban rail rail_electric rail_fast ship container cable_car subway aircraft wheelchair scooter drone" speed="16.40" length="36.76" shape="3203.41,1288.57 3215.79,1299.29 3224.68,1306.69 3230.08,1310.77 3231.98,1311.55"/>
        <lane id=":cluster1007951117_4750234625_6766002710_5_1" index="1" disallow="tram rail_urban rail rail_electric rail_fast ship container cable_car subway aircraft wheelchair scooter drone" speed="15.76" length="33.91" shape="3203.41,1288.57 3207.73,1292.21 3216.47,1299.66 3225.04,1307.16 3228.83,1310.99"/>
    </edge>
    <edge id=":cluster1007951117_4750234625_6766002710_7" function="internal">
        <lane id=":cluster1007951117_4750234625_6766002710_7_0" index="0" disallow="tram rail_urban rail rail_electric rail_fast ship container cable_car subway aircraft wheelchair scooter drone" speed="12.87" length="22.75" shape="3214.96,1308.55 3214.45,1305.65 3212.00,1301.75 3207.62,1296.86 3201.31,1290.97"/>
    </edge>
    <edge id=":cluster1007951117_4750234625_6766002710_8" function="internal">
        <lane id=":cluster1007951117_4750234625_6766002710_8_0" index="0" disallow="tram rail_urban rail rail_electric rail_fast ship container cable_car subway aircraft wheelchair scooter drone" speed="27.78" length="14.00" shape="3214.96,1308.55 3215.79,1304.26 3216.50,1301.36 3217.48,1298.53 3219.13,1294.49"/>
        <lane id=":cluster1007951117_4750234625_6766002710_8_1" index="1" disallow="tram rail_urban rail rail_electric rail_fast ship container cable_car subway aircraft wheelchair scooter drone" speed="27.78" length="14.00" shape="3218.12,1309.10 3218.91,1305.02 3219.58,1302.26 3220.52,1299.56 3222.08,1295.72"/>
        <lane id=":cluster1007951117_4750234625_6766002710_8_2" index="2" disallow="tram rail_urban rail rail_electric rail_fast ship container cable_car subway aircraft wheelchair scooter drone" speed="27.78" length="14.00" shape="3221.27,1309.66 3222.02,1305.78 3222.66,1303.16 3223.55,1300.60 3225.04,1296.95"/>
    </edge>

    <edge id="-721131929" from="6082322798" to="6082322801" priority="7" type="highway.primary_link">
        <lane id="-721131929_0" index="0" disallow="tram rail_urban rail rail_electric rail_fast ship container cable_car subway aircraft wheelchair scooter drone" speed="22.22" length="0.20" shape="3561.79,1028.83 3561.91,1028.99"/>
    </edge>
    <edge id="-721131931#1" from="7167343602" to="cluster1007951117_4750234625_6766002710" priority="11" type="highway.secondary" shape="3083.80,1102.87 3099.58,1119.97 3115.13,1141.89 3136.05,1180.29 3152.24,1214.18 3166.06,1243.17 3169.61,1251.63 3176.19,1262.70 3181.80,1270.06 3190.57,1279.44 3202.36,1289.77">
        <lane id="-721131931#1_0" index="0" disallow="tram rail_urban rail rail_electric rail_fast ship container cable_car subway aircraft wheelchair scooter drone" speed="27.78" length="223.20" shape="3084.98,1101.78 3100.83,1118.96 3116.49,1141.04 3137.48,1179.56 3153.68,1213.49 3167.52,1242.52 3171.04,1250.91 3177.52,1261.80 3183.02,1269.03 3191.68,1278.29 3203.41,1288.57"/>
    </edge>
    <edge id="-721131931#2" from="7940629349" to="7167343602" priority="11" type="highway.secondary" shape="3031.92,1049.39 3074.14,1093.33 3083.80,1102.87">
        <lane id="-721131931#2_0" index="0" disallow="tram rail_urban rail rail_electric rail_fast ship container cable_car subway aircraft wheelchair scooter drone" speed="27.78" length="74.47" shape="3033.07,1048.28 3075.28,1092.21 3084.92,1101.73"/>
    </edge>
    <edge id="-721131932" from="6766002712" to="6766002711" priority="7" type="highway.primary_link">
        <lane id="-721131932_0" index="0" disallow="tram rail_urban rail rail_electric rail_fast ship container cable_car subway aircraft wheelchair scooter drone" speed="22.22" length="1.31" shape="3308.89,1774.40 3307.62,1774.70"/>
    </edge>
    <edge id="-721131933#1" from="6766002742" to="6766002741" priority="3" type="highway.residential">
        <lane id="-721131933#1_0" index="0" disallow="tram rail_urban rail rail_electric rail_fast ship container cable_car subway aircraft wheelchair scooter drone" speed="13.89" length="2.26" shape="3180.34,2628.50 3178.68,2626.96"/>
    </edge>
    <edge id="1119166765#12" from="6766002711" to="cluster1007951117_4750234625_6766002710" priority="12" type="highway.primary" spreadType="center" shape="3300.93,1774.59 3287.55,1725.08 3252.99,1602.92 3234.15,1540.59 3215.86,1473.33 3211.18,1438.87 3209.07,1404.13 3209.18,1382.81 3210.37,1350.05 3219.45,1302.05">
        <lane id="1119166765#12_0" index="0" disallow="tram rail_urban rail rail_electric rail_fast ship container cable_car subway aircraft wheelchair scooter drone" speed="27.78" length="473.90" shape="3296.66,1771.06 3284.47,1725.93 3249.92,1603.82 3231.07,1541.47 3212.72,1473.97 3207.99,1439.18 3205.87,1404.22 3205.98,1382.74 3207.18,1349.69 3214.96,1308.55"/>
        <lane id="1119166765#12_1" index="1" disallow="tram rail_urban rail rail_electric rail_fast ship container cable_car subway aircraft wheelchair scooter drone" speed="27.78" length="473.90" shape="3299.75,1770.23 3287.55,1725.08 3252.99,1602.92 3234.15,1540.59 3215.86,1473.33 3211.18,1438.87 3209.07,1404.13 3209.18,1382.81 3210.37,1350.05 3218.12,1309.10"/>
        <lane id="1119166765#12_2" index="2" disallow="tram rail_urban rail rail_electric rail_fast ship container cable_car subway aircraft wheelchair scooter drone" speed="27.78" length="473.90" shape="3302.84,1769.39 3290.63,1724.23 3256.06,1602.02 3237.23,1539.71 3219.00,1472.69 3214.37,1438.56 3212.27,1404.04 3212.38,1382.88 3213.56,1350.41 3221.27,1309.66"/>
        <param key="ref" value="ĐT.47"/>
    </edge>
    <edge id="1119166765#6" from="6766002741" to="6766002711" priority="12" type="highway.primary" spreadType="center" shape="3175.00,2621.34 3233.19,2566.73 3245.91,2554.37 3257.45,2542.89 3273.18,2525.86 3283.42,2511.85 3290.56,2501.15 3306.73,2470.66 3325.72,2425.37 3334.75,2392.71 3344.47,2349.32 3352.80,2308.02 3360.76,2272.32 3380.53,2180.11 3383.64,2140.60 3383.33,2127.72 3383.45,2110.49 3379.74,2069.69 3371.76,2020.26 3341.83,1912.57 3318.09,1833.40 3300.93,1774.59">
        <lane id="1119166765#6_0" index="0" disallow="tram rail_urban rail rail_electric rail_fast ship container cable_car subway aircraft wheelchair scooter drone" speed="27.78" length="908.66" shape="3176.48,2615.57 3230.98,2564.42 3243.67,2552.09 3255.15,2540.67 3270.70,2523.82 3280.80,2510.02 3287.81,2499.51 3303.84,2469.29 3322.69,2424.32 3331.64,2391.93 3341.34,2348.65 3349.67,2307.36 3357.63,2271.64 3377.36,2179.65 3380.44,2140.51 3380.13,2127.75 3380.25,2110.62 3376.56,2070.09 3368.63,2020.95 3338.76,1913.46 3315.02,1834.31 3299.25,1780.27"/>
        <lane id="1119166765#6_1" index="1" disallow="tram rail_urban rail rail_electric rail_fast ship container cable_car subway aircraft wheelchair scooter drone" speed="27.78" length="908.66" shape="3178.67,2617.90 3233.19,2566.73 3245.91,2554.37 3257.45,2542.89 3273.18,2525.86 3283.42,2511.85 3290.56,2501.15 3306.73,2470.66 3325.72,2425.37 3334.75,2392.71 3344.47,2349.32 3352.80,2308.02 3360.76,2272.32 3380.53,2180.11 3383.64,2140.60 3383.33,2127.72 3383.45,2110.49 3379.74,2069.69 3371.76,2020.26 3341.83,1912.57 3318.09,1833.40 3302.33,1779.38"/>
        <lane id="1119166765#6_2" index="2" disallow="tram rail_urban rail rail_electric rail_fast ship container cable_car subway aircraft wheelchair scooter drone" speed="27.78" length="908.66" shape="3180.86,2620.23 3235.40,2569.04 3248.15,2556.65 3259.75,2545.11 3275.66,2527.90 3286.04,2513.68 3293.31,2502.79 3309.62,2472.03 3328.75,2426.42 3337.86,2393.49 3347.60,2349.99 3355.93,2308.68 3363.89,2273.00 3383.70,2180.57 3386.84,2140.69 3386.53,2127.69 3386.65,2110.36 3382.92,2069.29 3374.89,2019.57 3344.90,1911.68 3321.16,1832.49 3305.40,1778.48"/>
        <param key="ref" value="ĐT.47"/>
    </edge>
    <edge id="1149578360#0" from="cluster1007951117_4750234625_6766002710" to="6082322798" priority="12" type="highway.primary" spreadType="center" shape="3219.45,1302.05 3233.15,1269.13 3246.52,1241.63 3270.23,1207.99 3273.22,1204.52 3300.54,1172.40 3341.81,1139.70 3359.26,1128.39 3382.60,1114.81 3409.17,1100.87 3475.82,1068.42 3517.53,1046.83 3555.39,1023.47">
        <lane id="1149578360#0_0" index="0" disallow="tram rail_urban rail rail_electric rail_fast ship container cable_car subway aircraft wheelchair scooter drone" speed="27.78" length="436.71" shape="3219.13,1294.49 3230.23,1267.81 3243.76,1240.00 3267.70,1206.02 3270.79,1202.44 3298.31,1170.09 3339.94,1137.10 3357.58,1125.66 3381.05,1112.01 3407.73,1098.01 3474.38,1065.56 3515.95,1044.04 3548.08,1024.22"/>
        <lane id="1149578360#0_1" index="1" disallow="tram rail_urban rail rail_electric rail_fast ship container cable_car subway aircraft wheelchair scooter drone" speed="27.78" length="436.71" shape="3222.08,1295.72 3233.15,1269.13 3246.52,1241.63 3270.23,1207.99 3273.22,1204.52 3300.54,1172.40 3341.81,1139.70 3359.26,1128.39 3382.60,1114.81 3409.17,1100.87 3475.82,1068.42 3517.53,1046.83 3549.76,1026.94"/>
        <lane id="1149578360#0_2" index="2" disallow="tram rail_urban rail rail_electric rail_fast ship container cable_car subway aircraft wheelchair scooter drone" speed="27.78" length="436.71" shape="3225.04,1296.95 3236.07,1270.45 3249.28,1243.26 3272.76,1209.96 3275.65,1206.60 3302.77,1174.71 3343.68,1142.30 3360.94,1131.12 3384.15,1117.61 3410.61,1103.73 3477.26,1071.28 3519.11,1049.62 3551.44,1029.67"/>
        <param key="ref" value="ĐT.47"/>
    </edge>
    <edge id="1149578360#2" from="6082322798" to="10694346843" priority="12" type="highway.primary" spreadType="center" shape="3555.39,1023.47 3580.16,1000.76 3605.54,975.22 3642.62,922.72 3714.79,791.49">
        <lane id="1149578360#2_0" index="0" disallow="tram rail_urban rail rail_electric rail_fast ship container cable_car subway aircraft wheelchair scooter drone" speed="27.78" length="276.74" shape="3558.32,1016.44 3577.94,998.45 3603.08,973.15 3639.90,921.02 3711.99,789.95"/>
        <lane id="1149578360#2_1" index="1" disallow="tram rail_urban rail rail_electric rail_fast ship container cable_car subway aircraft wheelchair scooter drone" speed="27.78" length="276.74" shape="3560.48,1018.80 3580.16,1000.76 3605.54,975.22 3642.62,922.72 3714.79,791.49"/>
        <lane id="1149578360#2_2" index="2" disallow="tram rail_urban rail rail_electric rail_fast ship container cable_car subway aircraft wheelchair scooter drone" speed="27.78" length="276.74" shape="3562.64,1021.16 3582.38,1003.07 3608.00,977.29 3645.34,924.42 3717.59,793.03"/>
        <param key="ref" value="ĐT.47"/>
    </edge>
    <edge id="721126897#2" from="7940722981" to="6082322801" priority="12" type="highway.primary" spreadType="center" shape="3725.88,798.22 3709.12,829.72 3685.97,870.92 3667.72,904.33 3653.73,929.54 3647.99,939.17 3638.45,954.06 3628.80,968.16 3623.05,975.75 3601.16,1001.98 3564.70,1034.98">
        <lane id="721126897#2_0" index="0" disallow="tram rail_urban rail rail_electric rail_fast ship container cable_car subway aircraft wheelchair scooter drone" speed="27.78" length="283.71" shape="3728.71,799.72 3711.93,831.26 3688.77,872.47 3670.52,905.87 3656.50,931.14 3650.71,940.85 3641.12,955.83 3631.40,970.03 3625.56,977.74 3603.47,1004.20 3570.53,1034.02"/>