<additional xmlns:xsi="http://www.w3.org/2001/XMLSchema-instance" xsi:noNamespaceSchemaLocation="http://sumo.dlr.de/xsd/additional_file.xsd">
    <laneAreaDetector file="e2output.xml" freq="60" friendlyPos="x" id="e2det_-11_0" lane="-11_0" length="50" pos="106.65"/>
    <laneAreaDetector file="e2output.xml" freq="60" friendlyPos="x" id="e2det_-3_0" lane="-3_0" length="50" pos="161.48"/>
    <laneAreaDetector file="e2output.xml" freq="60" friendlyPos="x" id="e2det_-7_0" lane="-7_0" length="50" pos="139.59"/>
    <laneAreaDetector file="e2output.xml" freq="60" friendlyPos="x" id="e2det_-9_0" lane="-9_0" length="50" pos="138.72"/>
    <laneAreaDetector file="e2output.xml" freq="60" friendlyPos="x" id="e2det_-116_0" lane="-116_0" length="50" pos="93.72"/>
    <laneAreaDetector file="e2output.xml" freq="60" friendlyPos="x" id="e2det_-38_0" lane="-38_0" length="50" pos="113.16999999999999"/>
    <laneAreaDetector file="e2output.xml" freq="60" friendlyPos="x" id="e2det_-64_0" lane="-64_0" length="50" pos="80.16"/>
    <laneAreaDetector file="e2output.xml" freq="60" friendlyPos="x" id="e2det_13_0" lane="13_0" length="50" pos="63.2"/>
    <laneAreaDetector file="e2output.xml" freq="60" friendlyPos="x" id="e2det_17_0" lane="17_0" length="50" pos="153.68"/>
    <laneAreaDetector file="e2output.xml" freq="60" friendlyPos="x" id="e2det_-117_0" lane="-117_0" length="50" pos="49.230000000000004"/>
    <laneAreaDetector file="e2output.xml" freq="60" friendlyPos="x" id="e2det_-119_0" lane="-119_0" length="50" pos="54.44"/>
    <laneAreaDetector file="e2output.xml" freq="60" friendlyPos="x" id="e2det_15_0" lane="15_0" length="50" pos="78.58000000000001"/>
    <laneAreaDetector file="e2output.xml" freq="60" friendlyPos="x" id="e2det_-121_0" lane="-121_0" length="50" pos="141.53"/>
    <laneAreaDetector file="e2output.xml" freq="60" friendlyPos="x" id="e2det_-123_0" lane="-123_0" length="50" pos="85.35"/>
    <laneAreaDetector file="e2output.xml" freq="60" friendlyPos="x" id="e2det_-125_0" lane="-125_0" length="50" pos="117.80000000000001"/>
    <laneAreaDetector file="e2output.xml" freq="60" friendlyPos="x" id="e2det_19_0" lane="19_0" length="50" pos="122.72"/>
    <laneAreaDetector file="e2output.xml" freq="60" friendlyPos="x" id="e2det_-126_0" lane="-126_0" length="50" pos="153.68"/>
    <laneAreaDetector file="e2output.xml" freq="60" friendlyPos="x" id="e2det_-128_0" lane="-128_0" length="50" pos="41.290000000000006"/>
    <laneAreaDetector file="e2output.xml" freq="60" friendlyPos="x" id="e2det_-138_0" lane="-138_0" length="50" pos="143.75"/>
    <laneAreaDetector file="e2output.xml" freq="60" friendlyPos="x" id="e2det_-210_0" lane="-210_0" length="50" pos="71.83"/>
    <laneAreaDetector file="e2output.xml" freq="60" friendlyPos="x" id="e2det_25_0" lane="25_0" length="50" pos="144.69"/>
    <laneAreaDetector file="e2output.xml" freq="60" friendlyPos="x" id="e2det_-13_0" lane="-13_0" length="50" pos="63.2"/>
    <laneAreaDetector file="e2output.xml" freq="60" friendlyPos="x" id="e2det_-15_0" lane="-15_0" length="50" pos="78.58000000000001"/>
    <laneAreaDetector file="e2output.xml" freq="60" friendlyPos="x" id="e2det_3_0" lane="3_0" length="50" pos="161.48"/>
    <laneAreaDetector file="e2output.xml" freq="60" friendlyPos="x" id="e2det_-17_0" lane="-17_0" length="50" pos="153.68"/>
    <laneAreaDetector file="e2output.xml" freq="60" friendlyPos="x" id="e2det_-19_0" lane="-19_0" length="50" pos="122.72"/>
    <laneAreaDetector file="e2output.xml" freq="60" friendlyPos="x" id="e2det_-25_0" lane="-25_0" length="50" pos="144.69"/>
    <laneAreaDetector file="e2output.xml" freq="60" friendlyPos="x" id="e2det_9_0" lane="9_0" length="50" pos="138.72"/>
    <laneAreaDetector file="e2output.xml" freq="60" friendlyPos="x" id="e2det_-313_0" lane="-313_0" length="50" pos="90.58000000000001"/>
    <laneAreaDetector file="e2output.xml" freq="60" friendlyPos="x" id="e2det_-319_0" lane="-319_0" length="50" pos="150.79"/>
    <laneAreaDetector file="e2output.xml" freq="60" friendlyPos="x" id="e2det_-325_0" lane="-325_0" length="50" pos="83.58000000000001"/>
    <laneAreaDetector file="e2output.xml" freq="60" friendlyPos="x" id="e2det_117_0" lane="117_0" length="50" pos="49.230000000000004"/>
    <laneAreaDetector file="e2output.xml" freq="60" friendlyPos="x" id="e2det_38_0" lane="38_0" length="50" pos="113.16999999999999"/>
    <laneAreaDetector file="e2output.xml" freq="60" friendlyPos="x" id="e2det_-326_0" lane="-326_0" length="50" pos="59.44"/>
    <laneAreaDetector file="e2output.xml" freq="60" friendlyPos="x" id="e2det_121_0" lane="121_0" length="50" pos="141.53"/>
    <laneAreaDetector file="e2output.xml" freq="60" friendlyPos="x" id="e2det_64_0" lane="64_0" length="50" pos="80.16"/>
    <laneAreaDetector file="e2output.xml" freq="60" friendlyPos="x" id="e2det_-330_0" lane="-330_0" length="50" pos="158.94"/>
    <laneAreaDetector file="e2output.xml" freq="60" friendlyPos="x" id="e2det_-332_0" lane="-332_0" length="50" pos="58.129999999999995"/>
    <laneAreaDetector file="e2output.xml" freq="60" friendlyPos="x" id="e2det_119_0" lane="119_0" length="50" pos="54.44"/>
    <laneAreaDetector file="e2output.xml" freq="60" friendlyPos="x" id="e2det_-333_0" lane="-333_0" length="50" pos="102.66999999999999"/>
    <laneAreaDetector file="e2output.xml" freq="60" friendlyPos="x" id="e2det_-356_0" lane="-356_0" length="50" pos="105.28999999999999"/>
    <laneAreaDetector file="e2output.xml" freq="60" friendlyPos="x" id="e2det_7_0" lane="7_0" length="50" pos="139.59"/>
    <laneAreaDetector file="e2output.xml" freq="60" friendlyPos="x" id="e2det_-336_0" lane="-336_0" length="50" pos="36.730000000000004"/>
    <laneAreaDetector file="e2output.xml" freq="60" friendlyPos="x" id="e2det_-338_0" lane="-338_0" length="50" pos="53.06"/>
    <laneAreaDetector file="e2output.xml" freq="60" friendlyPos="x" id="e2det_123_0" lane="123_0" length="50" pos="85.35"/>
    <laneAreaDetector file="e2output.xml" freq="60" friendlyPos="x" id="e2det_-344_0" lane="-344_0" length="50" pos="62.629999999999995"/>
    <laneAreaDetector file="e2output.xml" freq="60" friendlyPos="x" id="e2det_125_0" lane="125_0" length="50" pos="117.80000000000001"/>
    <laneAreaDetector file="e2output.xml" freq="60" friendlyPos="x" id="e2det_126_0" lane="126_0" length="50" pos="153.68"/>
    <laneAreaDetector file="e2output.xml" freq="60" friendlyPos="x" id="e2det_570_0" lane="570_0" length="50" pos="77.94"/>
    <laneAreaDetector file="e2output.xml" freq="60" friendlyPos="x" id="e2det_-348_0" lane="-348_0" length="50" pos="96.15"/>
    <laneAreaDetector file="e2output.xml" freq="60" friendlyPos="x" id="e2det_138_0" lane="138_0" length="50" pos="143.75"/>
    <laneAreaDetector file="e2output.xml" freq="60" friendlyPos="x" id="e2det_333_0" lane="333_0" length="50" pos="102.66999999999999"/>
    <laneAreaDetector file="e2output.xml" freq="60" friendlyPos="x" id="e2det_-349_0" lane="-349_0" length="50" pos="100.94999999999999"/>
    <laneAreaDetector file="e2output.xml" freq="60" friendlyPos="x" id="e2det_-585_0" lane="-585_0" length="50" pos="88.32"/>
    <laneAreaDetector file="e2output.xml" freq="60" friendlyPos="x" id="e2det_210_0" lane="210_0" length="50" pos="71.83"/>
    <laneAreaDetector file="e2output.xml" freq="60" friendlyPos="x" id="e2det_381_0" lane="381_0" length="50" pos="47.36"/>
    <laneAreaDetector file="e2output.xml" freq="60" friendlyPos="x" id="e2det_-361_0" lane="-361_0" length="50" pos="100.94999999999999"/>
    <laneAreaDetector file="e2output.xml" freq="60" friendlyPos="x" id="e2det_-504_0" lane="-504_0" length="50" pos="164.16"/>
    <laneAreaDetector file="e2output.xml" freq="60" friendlyPos="x" id="e2det_336_0" lane="336_0" length="50" pos="36.730000000000004"/>
    <laneAreaDetector file="e2output.xml" freq="60" friendlyPos="x" id="e2det_-365_0" lane="-365_0" length="50" pos="144.26"/>
    <laneAreaDetector file="e2output.xml" freq="60" friendlyPos="x" id="e2det_-379_0" lane="-379_0" length="50" pos="99.96000000000001"/>
    <laneAreaDetector file="e2output.xml" freq="60" friendlyPos="x" id="e2det_344_0" lane="344_0" length="50" pos="62.629999999999995"/>
    <laneAreaDetector file="e2output.xml" freq="60" friendlyPos="x" id="e2det_349_0" lane="349_0" length="50" pos="100.94999999999999"/>
    <laneAreaDetector file="e2output.xml" freq="60" friendlyPos="x" id="e2det_-381_0" lane="-381_0" length="50" pos="47.36"/>
    <laneAreaDetector file="e2output.xml" freq="60" friendlyPos="x" id="e2det_-383_0" lane="-383_0" length="50" pos="90.88"/>
    <laneAreaDetector file="e2output.xml" freq="60" friendlyPos="x" id="e2det_128_0" lane="128_0" length="50" pos="41.290000000000006"/>
    <laneAreaDetector file="e2output.xml" freq="60" friendlyPos="x" id="e2det_-492_0" lane="-492_0" length="50" pos="162.43"/>
    <laneAreaDetector file="e2output.xml" freq="60" friendlyPos="x" id="e2det_-496_0" lane="-496_0" length="50" pos="62.540000000000006"/>
    <laneAreaDetector file="e2output.xml" freq="60" friendlyPos="x" id="e2det_361_0" lane="361_0" length="50" pos="100.94999999999999"/>
    <laneAreaDetector file="e2output.xml" freq="60" friendlyPos="x" id="e2det_-505_0" lane="-505_0" length="50" pos="123.78999999999999"/>
    <laneAreaDetector file="e2output.xml" freq="60" friendlyPos="x" id="e2det_-517_0" lane="-517_0" length="50" pos="112.0"/>
    <laneAreaDetector file="e2output.xml" freq="60" friendlyPos="x" id="e2det_-523_0" lane="-523_0" length="50" pos="144.5"/>
    <laneAreaDetector file="e2output.xml" freq="60" friendlyPos="x" id="e2det_338_0" lane="338_0" length="50" pos="53.06"/>
    <laneAreaDetector file="e2output.xml" freq="60" friendlyPos="x" id="e2det_-533_0" lane="-533_0" length="50" pos="61.650000000000006"/>
    <laneAreaDetector file="e2output.xml" freq="60" friendlyPos="x" id="e2det_-535_0" lane="-535_0" length="50" pos="120.22"/>
    <laneAreaDetector file="e2output.xml" freq="60" friendlyPos="x" id="e2det_-569_0" lane="-569_0" length="50" pos="129.35"/>
    <laneAreaDetector file="e2output.xml" freq="60" friendlyPos="x" id="e2det_365_0" lane="365_0" length="50" pos="144.26"/>
    <laneAreaDetector file="e2output.xml" freq="60" friendlyPos="x" id="e2det_-570_0" lane="-570_0" length="50" pos="77.94"/>
    <laneAreaDetector file="e2output.xml" freq="60" friendlyPos="x" id="e2det_379_0" lane="379_0" length="50" pos="99.96000000000001"/>
    <laneAreaDetector file="e2output.xml" freq="60" friendlyPos="x" id="e2det_492_0" lane="492_0" length="50" pos="162.43"/>
    <laneAreaDetector file="e2output.xml" freq="60" friendlyPos="x" id="e2det_-577_0" lane="-577_0" length="50" pos="139.88"/>
    <laneAreaDetector file="e2output.xml" freq="60" friendlyPos="x" id="e2det_-579_0" lane="-579_0" length="50" pos="113.11000000000001"/>
    <laneAreaDetector file="e2output.xml" freq="60" friendlyPos="x" id="e2det_383_0" lane="383_0" length="50" pos="90.88"/>
    <laneAreaDetector file="e2output.xml" freq="60" friendlyPos="x" id="e2det_-588_0" lane="-588_0" length="50" pos="65.63"/>
    <laneAreaDetector file="e2output.xml" freq="60" friendlyPos="x" id="e2det_-589_0" lane="-589_0" length="50" pos="166.7"/>
    <laneAreaDetector file="e2output.xml" freq="60" friendlyPos="x" id="e2det_325_0" lane="325_0" length="50" pos="83.58000000000001"/>
    <laneAreaDetector file="e2output.xml" freq="60" friendlyPos="x" id="e2det_-597_0" lane="-597_0" length="50" pos="44.129999999999995"/>
    <laneAreaDetector file="e2output.xml" freq="60" friendlyPos="x" id="e2det_504_0" lane="504_0" length="50" pos="164.16"/>
    <laneAreaDetector file="e2output.xml" freq="60" friendlyPos="x" id="e2det_505_0" lane="505_0" length="50" pos="123.78999999999999"/>
    <laneAreaDetector file="e2output.xml" freq="60" friendlyPos="x" id="e2det_-608_0" lane="-608_0" length="50" pos="122.03"/>
    <laneAreaDetector file="e2output.xml" freq="60" friendlyPos="x" id="e2det_-612_0" lane="-612_0" length="50" pos="135.8"/>
    <laneAreaDetector file="e2output.xml" freq="60" friendlyPos="x" id="e2det_577_0" lane="577_0" length="50" pos="139.88"/>
    <laneAreaDetector file="e2output.xml" freq="60" friendlyPos="x" id="e2det_-613_0" lane="-613_0" length="50" pos="152.75"/>
    <laneAreaDetector file="e2output.xml" freq="60" friendlyPos="x" id="e2det_-614_0" lane="-614_0" length="50" pos="51.66"/>
    <laneAreaDetector file="e2output.xml" freq="60" friendlyPos="x" id="e2det_-618_0" lane="-618_0" length="50" pos="94.53"/>
    <laneAreaDetector file="e2output.xml" freq="60" friendlyPos="x" id="e2det_579_0" lane="579_0" length="50" pos="113.11000000000001"/>
    <laneAreaDetector file="e2output.xml" freq="60" friendlyPos="x" id="e2det_-621_0" lane="-621_0" length="50" pos="42.019999999999996"/>
    <laneAreaDetector file="e2output.xml" freq="60" friendlyPos="x" id="e2det_-623_0" lane="-623_0" length="50" pos="118.80000000000001"/>
    <laneAreaDetector file="e2output.xml" freq="60" friendlyPos="x" id="e2det_-625_0" lane="-625_0" length="50" pos="85.56"/>
    <laneAreaDetector file="e2output.xml" freq="60" friendlyPos="x" id="e2det_-639_0" lane="-639_0" length="50" pos="140.97"/>
    <laneAreaDetector file="e2output.xml" freq="60" friendlyPos="x" id="e2det_319_0" lane="319_0" length="50" pos="150.79"/>
    <laneAreaDetector file="e2output.xml" freq="60" friendlyPos="x" id="e2det_116_0" lane="116_0" length="50" pos="93.72"/>
    <laneAreaDetector file="e2output.xml" freq="60" friendlyPos="x" id="e2det_313_0" lane="313_0" length="50" pos="90.58000000000001"/>
    <laneAreaDetector file="e2output.xml" freq="60" friendlyPos="x" id="e2det_326_0" lane="326_0" length="50" pos="59.44"/>
    <laneAreaDetector file="e2output.xml" freq="60" friendlyPos="x" id="e2det_585_0" lane="585_0" length="50" pos="88.32"/>
    <laneAreaDetector file="e2output.xml" freq="60" friendlyPos="x" id="e2det_601_0" lane="601_0" length="50" pos="129.53"/>
    <laneAreaDetector file="e2output.xml" freq="60" friendlyPos="x" id="e2det_613_0" lane="613_0" length="50" pos="152.75"/>
</additional>
