<?xml version="1.0" encoding="UTF-8"?>

<!-- generated on 2025-08-11 09:57:02 by Eclipse SUMO netedit Version 1.22.0
<neteditConfiguration xmlns:xsi="http://www.w3.org/2001/XMLSchema-instance" xsi:noNamespaceSchemaLocation="http://sumo.dlr.de/xsd/neteditConfiguration.xsd">

    <input>
        <sumo-net-file value="E:\VTS\ITS\Choose ATSC\Software\choose_ATSC_PBIL\data\input\sumo\test.net.xml"/>
    </input>

    <output>
        <output-file value="E:\VTS\ITS\Choose ATSC\Software\choose_ATSC_PBIL\data\input\sumo\test.net.xml"/>
    </output>

    <processing>
        <geometry.min-radius.fix.railways value="false"/>
        <geometry.max-grade.fix value="false"/>
        <offset.disable-normalization value="true"/>
        <lefthand value="0"/>
    </processing>

    <junctions>
        <no-turnarounds value="true"/>
        <junctions.corner-detail value="5"/>
        <junctions.limit-turn-speed value="5.50"/>
        <rectangular-lane-cut value="0"/>
    </junctions>

    <pedestrian>
        <walkingareas value="0"/>
    </pedestrian>

</neteditConfiguration>
-->

<net version="1.20" junctionCornerDetail="5" limitTurnSpeed="5.50" xmlns:xsi="http://www.w3.org/2001/XMLSchema-instance" xsi:noNamespaceSchemaLocation="http://sumo.dlr.de/xsd/net_file.xsd">

    <location netOffset="688.86,738.74" convBoundary="0.00,0.00,1586.53,1492.29" origBoundary="-688.86,-738.74,897.66,753.55" projParameter="!"/>

    <edge id=":1_0" function="internal">
        <lane id=":1_0_0" index="0" speed="5.98" length="9.08" shape="687.39,747.04 686.98,744.47 685.85,742.89 684.00,742.31 681.43,742.72"/>
    </edge>
    <edge id=":1_1" function="internal">
        <lane id=":1_1_0" index="0" speed="13.89" length="14.86" shape="687.39,747.04 687.25,743.31 686.94,739.62 686.42,735.96 685.67,732.31"/>
    </edge>
    <edge id=":1_2" function="internal">
        <lane id=":1_2_0" index="0" speed="8.09" length="4.36" shape="687.39,747.04 687.89,742.70"/>
    </edge>
    <edge id=":1_3" function="internal">
        <lane id=":1_3_0" index="0" speed="3.65" length="1.44" shape="687.39,747.04 688.17,745.82"/>
    </edge>
    <edge id=":1_16" function="internal">
        <lane id=":1_16_0" index="0" speed="8.09" length="10.76" shape="687.89,742.70 689.54,739.65 692.34,737.89 696.29,737.42"/>
    </edge>
    <edge id=":1_17" function="internal">
        <lane id=":1_17_0" index="0" speed="3.65" length="3.23" shape="688.17,745.82 688.96,745.41 689.77,745.80 690.59,746.99"/>
    </edge>
    <edge id=":1_4" function="internal">
        <lane id=":1_4_0" index="0" speed="6.62" length="9.76" shape="696.17,740.62 693.69,740.94 691.93,742.10 690.90,744.12 690.59,746.99"/>
    </edge>
    <edge id=":1_5" function="internal">
        <lane id=":1_5_0" index="0" speed="13.89" length="14.95" shape="696.17,740.62 692.43,740.66 688.72,741.04 685.05,741.74 681.43,742.72"/>
    </edge>
    <edge id=":1_6" function="internal">
        <lane id=":1_6_0" index="0" speed="9.03" length="3.93" shape="696.17,740.62 692.30,739.98"/>
    </edge>
    <edge id=":1_7" function="internal">
        <lane id=":1_7_0" index="0" speed="3.65" length="1.44" shape="696.17,740.62 695.00,739.77"/>
    </edge>
    <edge id=":1_18" function="internal">
        <lane id=":1_18_0" index="0" speed="9.03" length="10.59" shape="692.30,739.98 689.25,738.38 687.05,735.82 685.67,732.31"/>
    </edge>
    <edge id=":1_19" function="internal">
        <lane id=":1_19_0" index="0" speed="3.65" length="3.23" shape="695.00,739.77 694.63,738.96 695.06,738.17 696.29,737.42"/>
    </edge>
    <edge id=":1_8" function="internal">
        <lane id=":1_8_0" index="0" speed="7.70" length="10.32" shape="688.78,731.56 689.76,734.04 691.33,735.84 693.51,736.97 696.29,737.42"/>
    </edge>
    <edge id=":1_9" function="internal">
        <lane id=":1_9_0" index="0" speed="13.89" length="15.56" shape="688.78,731.56 689.55,735.32 690.09,739.22 690.44,743.15 690.59,746.99"/>
    </edge>
    <edge id=":1_10" function="internal">
        <lane id=":1_10_0" index="0" speed="8.41" length="4.08" shape="688.78,731.56 689.07,735.36 688.97,735.62"/>
    </edge>
    <edge id=":1_11" function="internal">
        <lane id=":1_11_0" index="0" speed="3.65" length="1.44" shape="688.78,731.56 688.28,732.92"/>
    </edge>
    <edge id=":1_20" function="internal">
        <lane id=":1_20_0" index="0" speed="8.41" length="10.92" shape="688.97,735.62 687.94,738.48 685.39,740.94 681.43,742.72"/>
    </edge>
    <edge id=":1_21" function="internal">
        <lane id=":1_21_0" index="0" speed="3.65" length="3.23" shape="688.28,732.92 687.60,733.49 686.73,733.29 685.67,732.31"/>
    </edge>
    <edge id=":1_12" function="internal">
        <lane id=":1_12_0" index="0" speed="7.00" length="10.09" shape="680.48,739.66 683.23,738.45 685.02,736.82 685.83,734.77 685.67,732.31"/>
    </edge>
    <edge id=":1_13" function="internal">
        <lane id=":1_13_0" index="0" speed="13.89" length="16.03" shape="680.48,739.66 684.27,738.66 688.31,737.92 692.39,737.48 696.29,737.42"/>
    </edge>
    <edge id=":1_14" function="internal">
        <lane id=":1_14_0" index="0" speed="7.59" length="4.78" shape="680.48,739.66 684.84,738.96 685.19,739.07"/>
    </edge>
    <edge id=":1_15" function="internal">
        <lane id=":1_15_0" index="0" speed="3.65" length="1.44" shape="680.48,739.66 681.87,740.07"/>
    </edge>
    <edge id=":1_22" function="internal">
        <lane id=":1_22_0" index="0" speed="7.59" length="10.63" shape="685.19,739.07 687.98,739.95 689.90,742.63 690.59,746.99"/>
    </edge>
    <edge id=":1_23" function="internal">
        <lane id=":1_23_0" index="0" speed="3.65" length="3.23" shape="681.87,740.07 682.49,740.72 682.34,741.60 681.43,742.72"/>
    </edge>
    <edge id=":10_0" function="internal">
        <lane id=":10_0_0" index="0" speed="3.65" length="4.67" shape="527.04,790.63 525.66,790.22 525.04,789.57 525.19,788.69 526.10,787.57"/>
    </edge>
    <edge id=":115_0" function="internal">
        <lane id=":115_0_0" index="0" speed="5.67" length="9.24" shape="860.98,431.48 859.42,429.19 857.78,428.35 856.04,428.97 854.21,431.05"/>
    </edge>
    <edge id=":115_1" function="internal">
        <lane id=":115_1_0" index="0" speed="11.86" length="15.57" shape="860.98,431.48 858.78,427.95 856.11,425.18 852.97,423.17 849.34,421.94"/>
    </edge>
    <edge id=":115_2" function="internal">
        <lane id=":115_2_0" index="0" speed="3.65" length="1.34" shape="860.98,431.48 861.14,430.15"/>
    </edge>
    <edge id=":115_9" function="internal">
        <lane id=":115_9_0" index="0" speed="3.65" length="3.33" shape="861.14,430.15 861.16,430.05 861.69,429.34 862.59,429.34 863.84,430.05"/>
    </edge>
    <edge id=":115_3" function="internal">
        <lane id=":115_3_0" index="0" speed="12.87" length="18.42" shape="850.04,418.81 854.35,420.28 858.09,422.64 861.26,425.90 863.84,430.05"/>
    </edge>
    <edge id=":115_4" function="internal">
        <lane id=":115_4_0" index="0" speed="7.64" length="5.91" shape="850.04,418.81 854.33,420.47 855.16,421.48"/>
    </edge>
    <edge id=":115_5" function="internal">
        <lane id=":115_5_0" index="0" speed="3.65" length="1.44" shape="850.04,418.81 851.03,419.85"/>
    </edge>
    <edge id=":115_10" function="internal">
        <lane id=":115_10_0" index="0" speed="7.64" length="10.55" shape="855.16,421.48 856.45,423.06 856.41,426.59 854.21,431.05"/>
    </edge>
    <edge id=":115_11" function="internal">
        <lane id=":115_11_0" index="0" speed="3.65" length="3.23" shape="851.03,419.85 851.25,420.72 850.69,421.41 849.34,421.94"/>
    </edge>
    <edge id=":115_6" function="internal">
        <lane id=":115_6_0" index="0" speed="6.02" length="9.74" shape="851.55,429.28 852.90,426.58 852.99,424.46 851.80,422.91 849.34,421.94"/>
    </edge>
    <edge id=":115_7" function="internal">
        <lane id=":115_7_0" index="0" speed="7.41" length="16.78" shape="851.55,429.28 854.87,425.50 858.03,424.37 861.02,425.89 863.84,430.05"/>
    </edge>
    <edge id=":115_8" function="internal">
        <lane id=":115_8_0" index="0" speed="3.65" length="1.44" shape="851.55,429.28 852.88,428.72"/>
    </edge>
    <edge id=":115_12" function="internal">
        <lane id=":115_12_0" index="0" speed="3.65" length="3.23" shape="852.88,428.72 853.76,428.84 854.21,429.61 854.21,431.05"/>
    </edge>
    <edge id=":118_0" function="internal">
        <lane id=":118_0_0" index="0" speed="13.89" length="17.12" shape="464.87,415.85 460.93,416.84 456.49,417.39 452.00,417.57 447.91,417.44"/>
    </edge>
    <edge id=":118_1" function="internal">
        <lane id=":118_1_0" index="0" speed="9.29" length="4.10" shape="464.87,415.85 461.23,416.38 460.83,416.26"/>
    </edge>
    <edge id=":118_2" function="internal">
        <lane id=":118_2_0" index="0" speed="3.65" length="1.44" shape="464.87,415.85 463.47,415.49"/>
    </edge>
    <edge id=":118_9" function="internal">
        <lane id=":118_9_0" index="0" speed="9.29" length="12.40" shape="460.83,416.26 457.80,415.36 454.57,412.79 451.55,408.66"/>
    </edge>
    <edge id=":118_10" function="internal">
        <lane id=":118_10_0" index="0" speed="3.65" length="3.23" shape="463.47,415.49 462.83,414.87 462.94,413.98 463.81,412.83"/>
    </edge>
    <edge id=":118_3" function="internal">
        <lane id=":118_3_0" index="0" speed="8.03" length="12.09" shape="454.30,407.03 456.58,410.22 458.93,412.25 461.34,413.12 463.81,412.83"/>
    </edge>
    <edge id=":118_4" function="internal">
        <lane id=":118_4_0" index="0" speed="7.38" length="17.43" shape="454.30,407.03 456.43,411.91 456.07,415.28 453.23,417.12 447.91,417.44"/>
    </edge>
    <edge id=":118_5" function="internal">
        <lane id=":118_5_0" index="0" speed="3.65" length="1.44" shape="454.30,407.03 454.23,408.47"/>
    </edge>
    <edge id=":118_11" function="internal">
        <lane id=":118_11_0" index="0" speed="3.65" length="3.23" shape="454.23,408.47 453.74,409.22 452.85,409.29 451.55,408.66"/>
    </edge>
    <edge id=":118_6" function="internal">
        <lane id=":118_6_0" index="0" speed="5.59" length="9.34" shape="448.13,414.25 450.98,414.08 452.50,413.09 452.69,411.28 451.55,408.66"/>
    </edge>
    <edge id=":118_7" function="internal">
        <lane id=":118_7_0" index="0" speed="13.89" length="15.84" shape="448.13,414.25 452.02,414.40 456.07,414.28 460.07,413.79 463.81,412.83"/>
    </edge>
    <edge id=":118_8" function="internal">
        <lane id=":118_8_0" index="0" speed="3.65" length="1.44" shape="448.13,414.25 449.27,415.13"/>
    </edge>
    <edge id=":118_12" function="internal">
        <lane id=":118_12_0" index="0" speed="3.65" length="3.23" shape="449.27,415.13 449.62,415.95 449.16,416.72 447.91,417.44"/>
    </edge>
    <edge id=":12_0" function="internal">
        <lane id=":12_0_0" index="0" speed="13.89" length="19.16" shape="768.38,571.64 765.37,568.47 761.31,565.25 756.94,562.44 752.99,560.49"/>
    </edge>
    <edge id=":12_1" function="internal">
        <lane id=":12_1_0" index="0" speed="13.89" length="20.94" shape="768.38,571.64 765.84,567.72 763.02,562.66 760.42,557.48 758.54,553.20"/>
    </edge>
    <edge id=":12_2" function="internal">
        <lane id=":12_2_0" index="0" speed="10.88" length="5.51" shape="768.38,571.64 766.08,567.32 765.99,566.72"/>
    </edge>
    <edge id=":12_3" function="internal">
        <lane id=":12_3_0" index="0" speed="7.68" length="5.06" shape="768.38,571.64 766.10,567.29 766.12,567.14"/>
    </edge>
    <edge id=":12_4" function="internal">
        <lane id=":12_4_0" index="0" speed="3.65" length="1.44" shape="768.38,571.64 768.31,570.20"/>
    </edge>
    <edge id=":12_25" function="internal">
        <lane id=":12_25_0" index="0" speed="10.88" length="14.52" shape="765.99,566.72 765.41,562.77 766.37,557.99 768.98,552.98"/>
    </edge>
    <edge id=":12_26" function="internal">
        <lane id=":12_26_0" index="0" speed="7.68" length="12.84" shape="766.12,567.14 766.44,563.90 769.38,561.46 774.94,559.97"/>
    </edge>
    <edge id=":12_27" function="internal">
        <lane id=":12_27_0" index="0" speed="3.65" length="3.23" shape="768.31,570.20 768.71,569.40 769.59,569.25 770.95,569.73"/>
    </edge>
    <edge id=":12_5" function="internal">
        <lane id=":12_5_0" index="0" speed="6.05" length="10.54" shape="775.40,563.14 771.96,564.01 770.07,565.41 769.74,567.31 770.95,569.73"/>
    </edge>
    <edge id=":12_6" function="internal">
        <lane id=":12_6_0" index="0" speed="13.89" length="22.69" shape="775.40,563.14 770.47,563.29 764.08,562.78 757.76,561.78 752.99,560.49"/>
    </edge>
    <edge id=":12_7" function="internal">
        <lane id=":12_7_0" index="0" speed="10.61" length="7.74" shape="775.40,563.14 769.72,563.20 767.78,562.52"/>
    </edge>
    <edge id=":12_8" function="internal">
        <lane id=":12_8_0" index="0" speed="7.40" length="7.33" shape="775.40,563.14 769.51,563.31 768.24,562.62"/>
    </edge>
    <edge id=":12_9" function="internal">
        <lane id=":12_9_0" index="0" speed="3.65" length="1.44" shape="775.40,563.14 774.10,562.52"/>
    </edge>
    <edge id=":12_28" function="internal">
        <lane id=":12_28_0" index="0" speed="10.61" length="13.66" shape="767.78,562.52 765.01,561.56 761.29,558.23 758.54,553.20"/>
    </edge>
    <edge id=":12_29" function="internal">
        <lane id=":12_29_0" index="0" speed="7.40" length="11.35" shape="768.24,562.62 766.48,561.67 766.30,558.23 768.98,552.98"/>
    </edge>
    <edge id=":12_30" function="internal">
        <lane id=":12_30_0" index="0" speed="3.65" length="3.23" shape="774.10,562.52 773.59,561.79 773.87,560.94 774.94,559.97"/>
    </edge>
    <edge id=":12_10" function="internal">
        <lane id=":12_10_0" index="0" speed="5.50" length="9.60" shape="771.64,554.75 770.26,557.45 770.35,559.22 771.91,560.06 774.94,559.97"/>
    </edge>
    <edge id=":12_11" function="internal">
        <lane id=":12_11_0" index="0" speed="9.79" length="16.07" shape="771.64,554.75 769.50,558.83 768.67,562.69 769.16,566.32 770.95,569.73"/>
    </edge>
    <edge id=":12_12" function="internal">
        <lane id=":12_12_0" index="0" speed="10.55" length="21.36" shape="771.64,554.75 767.87,559.01 763.51,561.38 758.55,561.88 752.99,560.49"/>
    </edge>
    <edge id=":12_13" function="internal">
        <lane id=":12_13_0" index="0" speed="7.65" length="18.93" shape="771.64,554.75 767.84,559.11 764.40,560.31 761.30,558.33 758.54,553.20"/>
    </edge>
    <edge id=":12_14" function="internal">
        <lane id=":12_14_0" index="0" speed="3.65" length="1.44" shape="771.64,554.75 770.31,555.31"/>
    </edge>
    <edge id=":12_31" function="internal">
        <lane id=":12_31_0" index="0" speed="3.65" length="3.23" shape="770.31,555.31 769.42,555.20 768.98,554.42 768.98,552.98"/>
    </edge>
    <edge id=":12_15" function="internal">
        <lane id=":12_15_0" index="0" speed="5.93" length="10.78" shape="761.53,552.05 763.10,554.98 764.86,556.12 766.82,555.45 768.98,552.98"/>
    </edge>
    <edge id=":12_16" function="internal">
        <lane id=":12_16_0" index="0" speed="9.51" length="17.03" shape="761.53,552.05 763.71,556.06 766.68,558.71 770.42,560.02 774.94,559.97"/>
    </edge>
    <edge id=":12_17" function="internal">
        <lane id=":12_17_0" index="0" speed="13.89" length="20.08" shape="761.53,552.05 763.34,556.22 765.79,561.14 768.47,565.93 770.95,569.73"/>
    </edge>
    <edge id=":12_18" function="internal">
        <lane id=":12_18_0" index="0" speed="7.40" length="4.41" shape="761.53,552.05 762.62,556.32"/>
    </edge>
    <edge id=":12_19" function="internal">
        <lane id=":12_19_0" index="0" speed="3.65" length="1.44" shape="761.53,552.05 761.21,553.46"/>
    </edge>
    <edge id=":12_32" function="internal">
        <lane id=":12_32_0" index="0" speed="7.40" length="14.40" shape="762.62,556.32 763.01,557.81 762.08,561.14 758.74,562.03 752.99,560.49"/>
    </edge>
    <edge id=":12_33" function="internal">
        <lane id=":12_33_0" index="0" speed="3.65" length="3.23" shape="761.21,553.46 760.61,554.12 759.72,554.03 758.54,553.20"/>
    </edge>
    <edge id=":12_20" function="internal">
        <lane id=":12_20_0" index="0" speed="5.49" length="9.62" shape="754.17,557.51 757.11,558.30 758.82,557.85 759.30,556.15 758.54,553.20"/>
    </edge>
    <edge id=":12_21" function="internal">
        <lane id=":12_21_0" index="0" speed="9.45" length="16.95" shape="754.17,557.51 758.59,558.62 762.53,558.23 765.99,556.35 768.98,552.98"/>
    </edge>
    <edge id=":12_22" function="internal">
        <lane id=":12_22_0" index="0" speed="13.89" length="21.03" shape="754.17,557.51 758.68,558.78 764.44,559.71 770.26,560.15 774.94,559.97"/>
    </edge>
    <edge id=":12_23" function="internal">
        <lane id=":12_23_0" index="0" speed="13.89" length="20.90" shape="754.17,557.51 758.34,559.64 763.19,562.81 767.73,566.39 770.95,569.73"/>
    </edge>
    <edge id=":12_24" function="internal">
        <lane id=":12_24_0" index="0" speed="3.65" length="1.33" shape="754.17,557.51 754.93,558.60"/>
    </edge>
    <edge id=":12_34" function="internal">
        <lane id=":12_34_0" index="0" speed="3.65" length="3.35" shape="754.93,558.60 754.99,558.70 755.07,559.59 754.40,560.19 752.99,560.49"/>
    </edge>
    <edge id=":122_0" function="internal">
        <lane id=":122_0_0" index="0" speed="6.55" length="7.91" shape="1136.59,529.49 1134.47,529.47 1132.74,530.09 1131.41,531.35 1130.46,533.24"/>
    </edge>
    <edge id=":122_1" function="internal">
        <lane id=":122_1_0" index="0" speed="8.64" length="12.14" shape="1136.59,529.49 1133.42,528.63 1130.95,527.08 1129.19,524.85 1128.13,521.93"/>
    </edge>
    <edge id=":122_2" function="internal">
        <lane id=":122_2_0" index="0" speed="3.65" length="1.44" shape="1136.59,529.49 1135.52,528.52"/>
    </edge>
    <edge id=":122_9" function="internal">
        <lane id=":122_9_0" index="0" speed="3.65" length="3.23" shape="1135.52,528.52 1135.24,527.67 1135.75,526.94 1137.06,526.33"/>
    </edge>
    <edge id=":122_3" function="internal">
        <lane id=":122_3_0" index="0" speed="7.22" length="8.24" shape="1131.26,521.26 1131.98,523.21 1133.18,524.70 1134.87,525.74 1137.06,526.33"/>
    </edge>
    <edge id=":122_4" function="internal">
        <lane id=":122_4_0" index="0" speed="13.89" length="12.20" shape="1131.26,521.26 1131.81,524.53 1131.86,527.31 1131.41,530.06 1130.46,533.24"/>
    </edge>
    <edge id=":122_5" function="internal">
        <lane id=":122_5_0" index="0" speed="3.65" length="1.44" shape="1131.26,521.26 1130.73,522.60"/>
    </edge>
    <edge id=":122_10" function="internal">
        <lane id=":122_10_0" index="0" speed="3.65" length="3.23" shape="1130.73,522.60 1130.04,523.16 1129.17,522.94 1128.13,521.93"/>
    </edge>
    <edge id=":122_6" function="internal">
        <lane id=":122_6_0" index="0" speed="13.89" length="10.53" shape="1127.43,532.22 1128.36,529.30 1128.78,527.13 1128.69,524.94 1128.13,521.93"/>
    </edge>
    <edge id=":122_7" function="internal">
        <lane id=":122_7_0" index="0" speed="8.05" length="3.47" shape="1127.43,532.22 1128.91,529.24 1129.02,529.14"/>
    </edge>
    <edge id=":122_8" function="internal">
        <lane id=":122_8_0" index="0" speed="3.65" length="1.44" shape="1127.43,532.22 1128.57,531.34"/>
    </edge>
    <edge id=":122_11" function="internal">
        <lane id=":122_11_0" index="0" speed="8.05" length="8.95" shape="1129.02,529.14 1131.01,527.26 1133.73,526.29 1137.06,526.33"/>
    </edge>
    <edge id=":122_12" function="internal">
        <lane id=":122_12_0" index="0" speed="3.65" length="3.23" shape="1128.57,531.34 1129.46,531.22 1130.09,531.85 1130.46,533.24"/>
    </edge>
    <edge id=":124_0" function="internal">
        <lane id=":124_0_0" index="0" speed="7.52" length="11.13" shape="1213.66,817.10 1211.45,815.01 1209.06,814.01 1206.51,814.09 1203.80,815.25"/>
    </edge>
    <edge id=":124_1" function="internal">
        <lane id=":124_1_0" index="0" speed="13.89" length="15.98" shape="1213.66,817.10 1203.13,805.07"/>
    </edge>
    <edge id=":124_2" function="internal">
        <lane id=":124_2_0" index="0" speed="7.62" length="3.99" shape="1213.66,817.10 1211.61,813.67"/>
    </edge>
    <edge id=":124_3" function="internal">
        <lane id=":124_3_0" index="0" speed="3.65" length="1.44" shape="1213.66,817.10 1213.53,815.66"/>
    </edge>
    <edge id=":124_16" function="internal">
        <lane id=":124_16_0" index="0" speed="7.62" length="11.30" shape="1211.61,813.67 1211.42,813.35 1211.16,810.08 1212.87,807.28 1216.55,804.95"/>
    </edge>
    <edge id=":124_17" function="internal">
        <lane id=":124_17_0" index="0" speed="3.65" length="3.23" shape="1213.53,815.66 1213.89,814.84 1214.77,814.65 1216.15,815.08"/>
    </edge>
    <edge id=":124_4" function="internal">
        <lane id=":124_4_0" index="0" speed="6.02" length="9.08" shape="1217.86,807.87 1215.67,809.25 1214.66,810.91 1214.82,812.86 1216.15,815.08"/>
    </edge>
    <edge id=":124_5" function="internal">
        <lane id=":124_5_0" index="0" speed="13.89" length="15.89" shape="1217.86,807.87 1214.34,809.52 1210.72,811.35 1207.15,813.29 1203.80,815.25"/>
    </edge>
    <edge id=":124_6" function="internal">
        <lane id=":124_6_0" index="0" speed="9.76" length="4.40" shape="1217.86,807.87 1213.76,809.12 1213.65,809.12"/>
    </edge>
    <edge id=":124_7" function="internal">
        <lane id=":124_7_0" index="0" speed="3.65" length="1.44" shape="1217.86,807.87 1216.44,807.63"/>
    </edge>
    <edge id=":124_18" function="internal">
        <lane id=":124_18_0" index="0" speed="9.76" length="11.71" shape="1213.65,809.12 1209.94,809.07 1206.40,807.72 1203.13,805.07"/>
    </edge>
    <edge id=":124_19" function="internal">
        <lane id=":124_19_0" index="0" speed="3.65" length="3.23" shape="1216.44,807.63 1215.75,807.06 1215.78,806.17 1216.55,804.95"/>
    </edge>
    <edge id=":124_8" function="internal">
        <lane id=":124_8_0" index="0" speed="8.54" length="12.12" shape="1205.46,802.87 1207.91,804.86 1210.57,805.87 1213.45,805.90 1216.55,804.95"/>
    </edge>
    <edge id=":124_9" function="internal">
        <lane id=":124_9_0" index="0" speed="13.89" length="16.23" shape="1205.46,802.87 1216.15,815.08"/>
    </edge>
    <edge id=":124_10" function="internal">
        <lane id=":124_10_0" index="0" speed="7.68" length="4.58" shape="1205.46,802.87 1207.91,806.35 1207.97,806.67"/>
    </edge>
    <edge id=":124_11" function="internal">
        <lane id=":124_11_0" index="0" speed="3.65" length="1.44" shape="1205.46,802.87 1205.70,804.29"/>
    </edge>
    <edge id=":124_20" function="internal">
        <lane id=":124_20_0" index="0" speed="7.68" length="10.47" shape="1207.97,806.67 1208.45,809.57 1207.08,812.54 1203.80,815.25"/>
    </edge>
    <edge id=":124_21" function="internal">
        <lane id=":124_21_0" index="0" speed="3.65" length="3.23" shape="1205.70,804.29 1205.40,805.13 1204.54,805.39 1203.13,805.07"/>
    </edge>
    <edge id=":124_12" function="internal">
        <lane id=":124_12_0" index="0" speed="6.10" length="9.06" shape="1202.13,812.52 1204.11,810.89 1204.94,809.10 1204.61,807.16 1203.13,805.07"/>
    </edge>
    <edge id=":124_13" function="internal">
        <lane id=":124_13_0" index="0" speed="13.89" length="16.29" shape="1202.13,812.52 1205.55,810.53 1209.23,808.53 1212.97,806.63 1216.55,804.95"/>
    </edge>
    <edge id=":124_14" function="internal">
        <lane id=":124_14_0" index="0" speed="8.86" length="4.51" shape="1202.13,812.52 1206.00,810.86 1206.30,810.85"/>
    </edge>
    <edge id=":124_15" function="internal">
        <lane id=":124_15_0" index="0" speed="3.65" length="1.44" shape="1202.13,812.52 1203.57,812.58"/>
    </edge>
    <edge id=":124_22" function="internal">
        <lane id=":124_22_0" index="0" speed="8.86" length="11.29" shape="1206.30,810.85 1209.63,810.73 1213.01,812.14 1216.15,815.08"/>
    </edge>
    <edge id=":124_23" function="internal">
        <lane id=":124_23_0" index="0" speed="3.65" length="3.23" shape="1203.57,812.58 1204.33,813.05 1204.41,813.95 1203.80,815.25"/>
    </edge>
    <edge id=":127_0" function="internal">
        <lane id=":127_0_0" index="0" speed="13.89" length="12.31" shape="1041.77,1039.39 1038.65,1040.62 1036.11,1041.88 1033.84,1043.53 1031.57,1045.94"/>
    </edge>
    <edge id=":127_1" function="internal">
        <lane id=":127_1_0" index="0" speed="7.67" length="3.98" shape="1041.77,1039.39 1037.89,1040.26"/>
    </edge>
    <edge id=":127_2" function="internal">
        <lane id=":127_2_0" index="0" speed="3.65" length="1.44" shape="1041.77,1039.39 1040.37,1039.07"/>
    </edge>
    <edge id=":127_9" function="internal">
        <lane id=":127_9_0" index="0" speed="7.67" length="11.09" shape="1037.89,1040.26 1037.61,1040.32 1034.43,1039.59 1032.22,1037.18 1030.98,1033.09"/>
    </edge>
    <edge id=":127_10" function="internal">
        <lane id=":127_10_0" index="0" speed="3.65" length="3.23" shape="1040.37,1039.07 1039.71,1038.46 1039.80,1037.57 1040.63,1036.40"/>
    </edge>
    <edge id=":127_3" function="internal">
        <lane id=":127_3_0" index="0" speed="6.09" length="9.06" shape="1034.14,1032.61 1034.89,1035.07 1036.22,1036.52 1038.13,1036.96 1040.63,1036.40"/>
    </edge>
    <edge id=":127_4" function="internal">
        <lane id=":127_4_0" index="0" speed="11.75" length="13.96" shape="1034.14,1032.61 1034.47,1036.66 1034.15,1040.23 1033.18,1043.33 1031.57,1045.94"/>
    </edge>
    <edge id=":127_5" function="internal">
        <lane id=":127_5_0" index="0" speed="3.65" length="1.44" shape="1034.14,1032.61 1033.53,1033.92"/>
    </edge>
    <edge id=":127_11" function="internal">
        <lane id=":127_11_0" index="0" speed="3.65" length="3.23" shape="1033.53,1033.92 1032.80,1034.43 1031.95,1034.16 1030.98,1033.09"/>
    </edge>
    <edge id=":127_6" function="internal">
        <lane id=":127_6_0" index="0" speed="10.61" length="11.29" shape="1029.09,1043.92 1030.33,1041.87 1031.05,1039.39 1031.27,1036.46 1030.98,1033.09"/>
    </edge>
    <edge id=":127_7" function="internal">
        <lane id=":127_7_0" index="0" speed="13.89" length="13.95" shape="1029.09,1043.92 1031.57,1041.36 1034.30,1039.37 1037.30,1037.78 1040.63,1036.40"/>
    </edge>
    <edge id=":127_8" function="internal">
        <lane id=":127_8_0" index="0" speed="3.65" length="1.44" shape="1029.09,1043.92 1030.47,1043.49"/>
    </edge>
    <edge id=":127_12" function="internal">
        <lane id=":127_12_0" index="0" speed="3.65" length="3.23" shape="1030.47,1043.49 1031.34,1043.69 1031.71,1044.50 1031.57,1045.94"/>
    </edge>
    <edge id=":137_0" function="internal">
        <lane id=":137_0_0" index="0" speed="10.89" length="19.96" shape="846.74,1047.35 841.82,1050.01 837.08,1051.05 832.52,1050.45 828.13,1048.22"/>
    </edge>
    <edge id=":137_1" function="internal">
        <lane id=":137_1_0" index="0" speed="7.39" length="8.31" shape="846.74,1047.35 841.60,1050.09 839.10,1050.00"/>
    </edge>
    <edge id=":137_2" function="internal">
        <lane id=":137_2_0" index="0" speed="3.65" length="1.44" shape="846.74,1047.35 845.29,1047.38"/>
    </edge>
    <edge id=":137_9" function="internal">
        <lane id=":137_9_0" index="0" speed="7.39" length="10.21" shape="839.10,1050.00 838.16,1049.97 836.42,1047.00 836.39,1041.18"/>
    </edge>
    <edge id=":137_10" function="internal">
        <lane id=":137_10_0" index="0" speed="3.65" length="3.23" shape="845.29,1047.38 844.51,1046.95 844.38,1046.07 844.91,1044.72"/>
    </edge>
    <edge id=":137_3" function="internal">
        <lane id=":137_3_0" index="0" speed="5.51" length="9.56" shape="839.57,1041.54 839.59,1044.54 840.48,1046.08 842.26,1046.14 844.91,1044.72"/>
    </edge>
    <edge id=":137_4" function="internal">
        <lane id=":137_4_0" index="0" speed="7.65" length="17.82" shape="839.57,1041.54 838.28,1047.09 835.94,1050.05 832.56,1050.43 828.13,1048.22"/>
    </edge>
    <edge id=":137_5" function="internal">
        <lane id=":137_5_0" index="0" speed="3.65" length="1.44" shape="839.57,1041.54 838.64,1042.64"/>
    </edge>
    <edge id=":137_11" function="internal">
        <lane id=":137_11_0" index="0" speed="3.65" length="3.23" shape="838.64,1042.64 837.80,1042.95 837.05,1042.46 836.39,1041.18"/>
    </edge>
    <edge id=":137_6" function="internal">
        <lane id=":137_6_0" index="0" speed="6.00" length="10.40" shape="829.98,1045.61 832.43,1046.79 834.32,1046.44 835.64,1044.57 836.39,1041.18"/>
    </edge>
    <edge id=":137_7" function="internal">
        <lane id=":137_7_0" index="0" speed="9.80" length="16.03" shape="829.98,1045.61 833.45,1047.35 837.10,1047.78 840.91,1046.91 844.91,1044.72"/>
    </edge>
    <edge id=":137_8" function="internal">
        <lane id=":137_8_0" index="0" speed="3.65" length="1.30" shape="829.98,1045.61 830.44,1046.82"/>
    </edge>
    <edge id=":137_12" function="internal">
        <lane id=":137_12_0" index="0" speed="3.65" length="3.37" shape="830.44,1046.82 830.49,1046.96 830.36,1047.84 829.57,1048.26 828.13,1048.22"/>
    </edge>
    <edge id=":14_0" function="internal">
        <lane id=":14_0_0" index="0" speed="7.36" length="11.12" shape="576.57,385.22 574.84,382.16 572.87,380.23 570.65,379.44 568.19,379.77"/>
    </edge>
    <edge id=":14_1" function="internal">
        <lane id=":14_1_0" index="0" speed="7.41" length="16.65" shape="576.57,385.22 575.18,380.44 575.91,377.17 578.76,375.42 583.73,375.17"/>
    </edge>
    <edge id=":14_2" function="internal">
        <lane id=":14_2_0" index="0" speed="3.65" length="1.44" shape="576.57,385.22 576.81,383.80"/>
    </edge>
    <edge id=":14_9" function="internal">
        <lane id=":14_9_0" index="0" speed="3.65" length="3.23" shape="576.81,383.80 577.38,383.11 578.28,383.15 579.49,383.92"/>
    </edge>
    <edge id=":14_3" function="internal">