<?xml version="1.0" encoding="UTF-8"?>

<!-- generated on 2025-08-15 10:56:08.629366 by randomTrips.py v1_22_0+0002-63e50f52594
<configuration>
    <net-file value="test.net.xml"/>
    <output-trip-file value="test-demo.rou.xml"/>
    <trip-attributes value="type=&quot;td_0&quot; departLane=&quot;best&quot; departSpeed=&quot;max&quot; departPos=&quot;random&quot;"/>
    <lanes value="True"/>
    <end value="1200.0"/>
    <insertion-rate value="5000.0"/>
</configuration>
-->

<routes xmlns:xsi="http://www.w3.org/2001/XMLSchema-instance" xsi:noNamespaceSchemaLocation="http://sumo.dlr.de/xsd/routes_file.xsd">
    <trip id="0" depart="0.00" from="15" to="-121" type="td_0" departLane="best" departSpeed="max" departPos="random"/>
    <trip id="1" depart="0.72" from="-38" to="-356" type="td_0" departLane="best" departSpeed="max" departPos="random"/>
    <trip id="2" depart="1.44" from="336" to="348" type="td_0" departLane="best" departSpeed="max" departPos="random"/>
    <trip id="3" depart="2.16" from="570" to="-15" type="td_0" departLane="best" departSpeed="max" departPos="random"/>
    <trip id="4" depart="2.88" from="-592" to="-121" type="td_0" departLane="best" departSpeed="max" departPos="random"/>
    <trip id="5" depart="3.60" from="-344" to="126" type="td_0" departLane="best" departSpeed="max" departPos="random"/>
    <trip id="6" depart="4.32" from="-119" to="-344" type="td_0" departLane="best" departSpeed="max" departPos="random"/>
    <trip id="7" depart="5.04" from="17" to="15" type="td_0" departLane="best" departSpeed="max" departPos="random"/>
    <trip id="8" depart="5.76" from="-344" to="313" type="td_0" departLane="best" departSpeed="max" departPos="random"/>
    <trip id="9" depart="6.48" from="379" to="-116" type="td_0" departLane="best" departSpeed="max" departPos="random"/>
    <trip id="10" depart="7.20" from="379" to="361" type="td_0" departLane="best" departSpeed="max" departPos="random"/>
    <trip id="11" depart="7.92" from="-523" to="-325" type="td_0" departLane="best" departSpeed="max" departPos="random"/>
    <trip id="12" depart="8.64" from="608" to="-570" type="td_0" departLane="best" departSpeed="max" departPos="random"/>
    <trip id="13" depart="9.36" from="-15" to="-17" type="td_0" departLane="best" departSpeed="max" departPos="random"/>
    <trip id="14" depart="10.08" from="504" to="325" type="td_0" departLane="best" departSpeed="max" departPos="random"/>
    <trip id="15" depart="10.80" from="379" to="381" type="td_0" departLane="best" departSpeed="max" departPos="random"/>
    <trip id="16" depart="11.52" from="-642" to="64" type="td_0" departLane="best" departSpeed="max" departPos="random"/>
    <trip id="17" depart="12.24" from="-570" to="17" type="td_0" departLane="best" departSpeed="max" departPos="random"/>
    <trip id="18" depart="12.96" from="383" to="326" type="td_0" departLane="best" departSpeed="max" departPos="random"/>
    <trip id="19" depart="13.68" from="517" to="25" type="td_0" departLane="best" departSpeed="max" departPos="random"/>
    <trip id="20" depart="14.40" from="325" to="-125" type="td_0" departLane="best" departSpeed="max" departPos="random"/>
    <trip id="21" depart="15.12" from="-348" to="-504" type="td_0" departLane="best" departSpeed="max" departPos="random"/>
    <trip id="22" depart="15.84" from="-13" to="-361" type="td_0" departLane="best" departSpeed="max" departPos="random"/>
    <trip id="23" depart="16.56" from="-17" to="-383" type="td_0" departLane="best" departSpeed="max" departPos="random"/>
    <trip id="24" depart="17.28" from="138" to="-588" type="td_0" departLane="best" departSpeed="max" departPos="random"/>
    <trip id="25" depart="18.00" from="-569" to="-348" type="td_0" departLane="best" departSpeed="max" departPos="random"/>
    <trip id="26" depart="18.72" from="-379" to="621" type="td_0" departLane="best" departSpeed="max" departPos="random"/>
    <trip id="27" depart="19.44" from="17" to="325" type="td_0" departLane="best" departSpeed="max" departPos="random"/>
    <trip id="28" depart="20.16" from="-326" to="381" type="td_0" departLane="best" departSpeed="max" departPos="random"/>
    <trip id="29" depart="20.88" from="-325" to="-589" type="td_0" departLane="best" departSpeed="max" departPos="random"/>
    <trip id="30" depart="21.60" from="7" to="333" type="td_0" departLane="best" departSpeed="max" departPos="random"/>
    <trip id="31" depart="22.32" from="116" to="349" type="td_0" departLane="best" departSpeed="max" departPos="random"/>
    <trip id="32" depart="23.04" from="492" to="505" type="td_0" departLane="best" departSpeed="max" departPos="random"/>
    <trip id="33" depart="23.76" from="-348" to="-121" type="td_0" departLane="best" departSpeed="max" departPos="random"/>
    <trip id="34" depart="24.48" from="-504" to="-381" type="td_0" departLane="best" departSpeed="max" departPos="random"/>
    <trip id="35" depart="25.20" from="-338" to="623" type="td_0" departLane="best" departSpeed="max" departPos="random"/>
    <trip id="36" depart="25.92" from="535" to="-523" type="td_0" departLane="best" departSpeed="max" departPos="random"/>
    <trip id="37" depart="26.64" from="19" to="-601" type="td_0" departLane="best" departSpeed="max" departPos="random"/>
    <trip id="38" depart="27.36" from="585" to="116" type="td_0" departLane="best" departSpeed="max" departPos="random"/>
    <trip id="39" depart="28.08" from="-379" to="-365" type="td_0" departLane="best" departSpeed="max" departPos="random"/>
    <trip id="40" depart="28.80" from="116" to="-38" type="td_0" departLane="best" departSpeed="max" departPos="random"/>
    <trip id="41" depart="29.52" from="121" to="608" type="td_0" departLane="best" departSpeed="max" departPos="random"/>
    <trip id="42" depart="30.24" from="-585" to="-349" type="td_0" departLane="best" departSpeed="max" departPos="random"/>
    <trip id="43" depart="30.96" from="9" to="126" type="td_0" departLane="best" departSpeed="max" departPos="random"/>
    <trip id="44" depart="31.68" from="-15" to="-125" type="td_0" departLane="best" departSpeed="max" departPos="random"/>
    <trip id="45" depart="32.40" from="-19" to="330" type="td_0" departLane="best" departSpeed="max" departPos="random"/>
    <trip id="46" depart="33.12" from="361" to="-64" type="td_0" departLane="best" departSpeed="max" departPos="random"/>
    <trip id="47" depart="33.84" from="-126" to="-592" type="td_0" departLane="best" departSpeed="max" departPos="random"/>
    <trip id="48" depart="34.56" from="9" to="138" type="td_0" departLane="best" departSpeed="max" departPos="random"/>
    <trip id="49" depart="35.28" from="614" to="589" type="td_0" departLane="best" departSpeed="max" departPos="random"/>
    <trip id="50" depart="36.00" from="-116" to="38" type="td_0" departLane="best" departSpeed="max" departPos="random"/>
    <trip id="51" depart="36.72" from="3" to="138" type="td_0" departLane="best" departSpeed="max" departPos="random"/>
    <trip id="52" depart="37.44" from="-379" to="333" type="td_0" departLane="best" departSpeed="max" departPos="random"/>
    <trip id="53" depart="38.16" from="-19" to="-7" type="td_0" departLane="best" departSpeed="max" departPos="random"/>
    <trip id="54" depart="38.88" from="-608" to="625" type="td_0" departLane="best" departSpeed="max" departPos="random"/>
    <trip id="55" depart="39.60" from="523" to="-38" type="td_0" departLane="best" departSpeed="max" departPos="random"/>
    <trip id="56" depart="40.32" from="-623" to="-333" type="td_0" departLane="best" departSpeed="max" departPos="random"/>
    <trip id="57" depart="41.04" from="585" to="592" type="td_0" departLane="best" departSpeed="max" departPos="random"/>
    <trip id="58" depart="41.76" from="-492" to="333" type="td_0" departLane="best" departSpeed="max" departPos="random"/>
    <trip id="59" depart="42.48" from="126" to="-325" type="td_0" departLane="best" departSpeed="max" departPos="random"/>
    <trip id="60" depart="43.20" from="348" to="15" type="td_0" departLane="best" departSpeed="max" departPos="random"/>
    <trip id="61" depart="43.92" from="356" to="138" type="td_0" departLane="best" departSpeed="max" departPos="random"/>
    <trip id="62" depart="44.64" from="-11" to="-535" type="td_0" departLane="best" departSpeed="max" departPos="random"/>
    <trip id="63" depart="45.36" from="-117" to="618" type="td_0" departLane="best" departSpeed="max" departPos="random"/>
    <trip id="64" depart="46.08" from="535" to="577" type="td_0" departLane="best" departSpeed="max" departPos="random"/>
    <trip id="65" depart="46.80" from="-496" to="-128" type="td_0" departLane="best" departSpeed="max" departPos="random"/>
    <trip id="66" depart="47.52" from="535" to="623" type="td_0" departLane="best" departSpeed="max" departPos="random"/>
    <trip id="67" depart="48.24" from="-138" to="121" type="td_0" departLane="best" departSpeed="max" departPos="random"/>
    <trip id="68" depart="48.96" from="-128" to="504" type="td_0" departLane="best" departSpeed="max" departPos="random"/>
    <trip id="69" depart="49.68" from="348" to="-3" type="td_0" departLane="best" departSpeed="max" departPos="random"/>
    <trip id="70" depart="50.40" from="-614" to="17" type="td_0" departLane="best" departSpeed="max" departPos="random"/>
    <trip id="71" depart="51.12" from="-379" to="592" type="td_0" departLane="best" departSpeed="max" departPos="random"/>
    <trip id="72" depart="51.84" from="-592" to="-348" type="td_0" departLane="best" departSpeed="max" departPos="random"/>
    <trip id="73" depart="52.56" from="-7" to="381" type="td_0" departLane="best" departSpeed="max" departPos="random"/>
    <trip id="74" depart="53.28" from="-336" to="-517" type="td_0" departLane="best" departSpeed="max" departPos="random"/>
    <trip id="75" depart="54.00" from="9" to="336" type="td_0" departLane="best" departSpeed="max" departPos="random"/>
    <trip id="76" depart="54.72" from="-601" to="128" type="td_0" departLane="best" departSpeed="max" departPos="random"/>
    <trip id="77" depart="55.44" from="-210" to="-356" type="td_0" departLane="best" departSpeed="max" departPos="random"/>
    <trip id="78" depart="56.16" from="-517" to="313" type="td_0" departLane="best" departSpeed="max" departPos="random"/>
    <trip id="79" depart="56.88" from="-348" to="-349" type="td_0" departLane="best" departSpeed="max" departPos="random"/>
    <trip id="80" depart="57.60" from="-128" to="332" type="td_0" departLane="best" departSpeed="max" departPos="random"/>
    <trip id="81" depart="58.32" from="-348" to="612" type="td_0" departLane="best" departSpeed="max" departPos="random"/>
    <trip id="82" depart="59.04" from="517" to="-13" type="td_0" departLane="best" departSpeed="max" departPos="random"/>
    <trip id="83" depart="59.76" from="-349" to="344" type="td_0" departLane="best" departSpeed="max" departPos="random"/>
    <trip id="84" depart="60.48" from="-338" to="-313" type="td_0" departLane="best" departSpeed="max" departPos="random"/>
    <trip id="85" depart="61.20" from="592" to="25" type="td_0" departLane="best" departSpeed="max" departPos="random"/>
    <trip id="86" depart="61.92" from="-614" to="517" type="td_0" departLane="best" departSpeed="max" departPos="random"/>
    <trip id="87" depart="62.64" from="379" to="-338" type="td_0" departLane="best" departSpeed="max" departPos="random"/>
    <trip id="88" depart="63.36" from="-15" to="-7" type="td_0" departLane="best" departSpeed="max" departPos="random"/>
    <trip id="89" depart="64.08" from="-592" to="117" type="td_0" departLane="best" departSpeed="max" departPos="random"/>
    <trip id="90" depart="64.80" from="333" to="348" type="td_0" departLane="best" departSpeed="max" departPos="random"/>
    <trip id="91" depart="65.52" from="7" to="-17" type="td_0" departLane="best" departSpeed="max" departPos="random"/>
    <trip id="92" depart="66.24" from="-585" to="-577" type="td_0" departLane="best" departSpeed="max" departPos="random"/>
    <trip id="93" depart="66.96" from="517" to="-379" type="td_0" departLane="best" departSpeed="max" departPos="random"/>
    <trip id="94" depart="67.68" from="-333" to="11" type="td_0" departLane="best" departSpeed="max" departPos="random"/>
    <trip id="95" depart="68.40" from="-592" to="-383" type="td_0" departLane="best" departSpeed="max" departPos="random"/>
    <trip id="96" depart="69.12" from="-361" to="614" type="td_0" departLane="best" departSpeed="max" departPos="random"/>
    <trip id="97" depart="69.84" from="-601" to="589" type="td_0" departLane="best" departSpeed="max" departPos="random"/>
    <trip id="98" depart="70.56" from="-9" to="-126" type="td_0" departLane="best" departSpeed="max" departPos="random"/>
    <trip id="99" depart="71.28" from="9" to="579" type="td_0" departLane="best" departSpeed="max" departPos="random"/>
    <trip id="100" depart="72.00" from="614" to="618" type="td_0" departLane="best" departSpeed="max" departPos="random"/>
    <trip id="101" depart="72.72" from="504" to="-332" type="td_0" departLane="best" departSpeed="max" departPos="random"/>
    <trip id="102" depart="73.44" from="-618" to="-348" type="td_0" departLane="best" departSpeed="max" departPos="random"/>
    <trip id="103" depart="74.16" from="-585" to="-128" type="td_0" departLane="best" departSpeed="max" departPos="random"/>
    <trip id="104" depart="74.88" from="-570" to="7" type="td_0" departLane="best" departSpeed="max" departPos="random"/>
    <trip id="105" depart="75.60" from="-379" to="517" type="td_0" departLane="best" departSpeed="max" departPos="random"/>
    <trip id="106" depart="76.32" from="-612" to="-64" type="td_0" departLane="best" departSpeed="max" departPos="random"/>
    <trip id="107" depart="77.04" from="608" to="9" type="td_0" departLane="best" departSpeed="max" departPos="random"/>
    <trip id="108" depart="77.76" from="116" to="379" type="td_0" departLane="best" departSpeed="max" departPos="random"/>
    <trip id="109" depart="78.48" from="-319" to="-504" type="td_0" departLane="best" departSpeed="max" departPos="random"/>
    <trip id="110" depart="79.20" from="614" to="3" type="td_0" departLane="best" departSpeed="max" departPos="random"/>
    <trip id="111" depart="79.92" from="-7" to="492" type="td_0" departLane="best" departSpeed="max" departPos="random"/>
    <trip id="112" depart="80.64" from="-125" to="3" type="td_0" departLane="best" departSpeed="max" departPos="random"/>
    <trip id="113" depart="81.36" from="-623" to="588" type="td_0" departLane="best" departSpeed="max" departPos="random"/>
    <trip id="114" depart="82.08" from="-325" to="639" type="td_0" departLane="best" departSpeed="max" departPos="random"/>
    <trip id="115" depart="82.80" from="-13" to="-336" type="td_0" departLane="best" departSpeed="max" departPos="random"/>
    <trip id="116" depart="83.52" from="123" to="348" type="td_0" departLane="best" departSpeed="max" departPos="random"/>
    <trip id="117" depart="84.24" from="-349" to="-25" type="td_0" departLane="best" departSpeed="max" departPos="random"/>
    <trip id="118" depart="84.96" from="570" to="-365" type="td_0" departLane="best" departSpeed="max" departPos="random"/>
    <trip id="119" depart="85.68" from="123" to="326" type="td_0" departLane="best" departSpeed="max" departPos="random"/>
    <trip id="120" depart="86.40" from="-589" to="3" type="td_0" departLane="best" departSpeed="max" departPos="random"/>
    <trip id="121" depart="87.12" from="-64" to="621" type="td_0" departLane="best" departSpeed="max" departPos="random"/>
    <trip id="122" depart="87.84" from="-336" to="379" type="td_0" departLane="best" departSpeed="max" departPos="random"/>
    <trip id="123" depart="88.56" from="-349" to="-601" type="td_0" departLane="best" departSpeed="max" departPos="random"/>
    <trip id="124" depart="89.28" from="25" to="-505" type="td_0" departLane="best" departSpeed="max" departPos="random"/>
    <trip id="125" depart="90.00" from="-504" to="492" type="td_0" departLane="best" departSpeed="max" departPos="random"/>
    <trip id="126" depart="90.72" from="-128" to="116" type="td_0" departLane="best" departSpeed="max" departPos="random"/>
    <trip id="127" depart="91.44" from="9" to="9" type="td_0" departLane="best" departSpeed="max" departPos="random"/>
    <trip id="128" depart="92.16" from="-128" to="-348" type="td_0" departLane="best" departSpeed="max" departPos="random"/>
    <trip id="129" depart="92.88" from="-379" to="618" type="td_0" departLane="best" departSpeed="max" departPos="random"/>
    <trip id="130" depart="93.60" from="535" to="597" type="td_0" departLane="best" departSpeed="max" departPos="random"/>
    <trip id="131" depart="94.32" from="-569" to="-326" type="td_0" departLane="best" departSpeed="max" departPos="random"/>
    <trip id="132" depart="95.04" from="383" to="365" type="td_0" departLane="best" departSpeed="max" departPos="random"/>
    <trip id="133" depart="95.76" from="128" to="7" type="td_0" departLane="best" departSpeed="max" departPos="random"/>
    <trip id="134" depart="96.48" from="19" to="-116" type="td_0" departLane="best" departSpeed="max" departPos="random"/>
    <trip id="135" depart="97.20" from="38" to="-505" type="td_0" departLane="best" departSpeed="max" departPos="random"/>
    <trip id="136" depart="97.92" from="210" to="621" type="td_0" departLane="best" departSpeed="max" departPos="random"/>
    <trip id="137" depart="98.64" from="-3" to="-210" type="td_0" departLane="best" departSpeed="max" departPos="random"/>
    <trip id="138" depart="99.36" from="-17" to="17" type="td_0" departLane="best" departSpeed="max" departPos="random"/>
    <trip id="139" depart="100.08" from="-379" to="325" type="td_0" departLane="best" departSpeed="max" departPos="random"/>
    <trip id="140" depart="100.80" from="326" to="-344" type="td_0" departLane="best" departSpeed="max" departPos="random"/>
    <trip id="141" depart="101.52" from="138" to="-38" type="td_0" departLane="best" departSpeed="max" departPos="random"/>
    <trip id="142" depart="102.24" from="-621" to="612" type="td_0" departLane="best" departSpeed="max" departPos="random"/>
    <trip id="143" depart="102.96" from="504" to="-17" type="td_0" departLane="best" departSpeed="max" departPos="random"/>
    <trip id="144" depart="103.68" from="-592" to="-383" type="td_0" departLane="best" departSpeed="max" departPos="random"/>
    <trip id="145" depart="104.40" from="-11" to="505" type="td_0" departLane="best" departSpeed="max" departPos="random"/>
    <trip id="146" depart="105.12" from="15" to="-38" type="td_0" departLane="best" departSpeed="max" departPos="random"/>
    <trip id="147" depart="105.84" from="336" to="17" type="td_0" departLane="best" departSpeed="max" departPos="random"/>
    <trip id="148" depart="106.56" from="-592" to="-117" type="td_0" departLane="best" departSpeed="max" departPos="random"/>
    <trip id="149" depart="107.28" from="-13" to="597" type="td_0" departLane="best" departSpeed="max" departPos="random"/>
    <trip id="150" depart="108.00" from="579" to="17" type="td_0" departLane="best" departSpeed="max" departPos="random"/>
    <trip id="151" depart="108.72" from="383" to="3" type="td_0" departLane="best" departSpeed="max" departPos="random"/>
    <trip id="152" depart="109.44" from="-313" to="-3" type="td_0" departLane="best" departSpeed="max" departPos="random"/>
    <trip id="153" depart="110.16" from="-496" to="608" type="td_0" departLane="best" departSpeed="max" departPos="random"/>
    <trip id="154" depart="110.88" from="365" to="589" type="td_0" departLane="best" departSpeed="max" departPos="random"/>
    <trip id="155" depart="111.60" from="577" to="-348" type="td_0" departLane="best" departSpeed="max" departPos="random"/>
    <trip id="156" depart="112.32" from="-361" to="-19" type="td_0" departLane="best" departSpeed="max" departPos="random"/>
    <trip id="157" depart="113.04" from="356" to="597" type="td_0" departLane="best" departSpeed="max" departPos="random"/>
    <trip id="158" depart="113.76" from="-588" to="330" type="td_0" departLane="best" departSpeed="max" departPos="random"/>
    <trip id="159" depart="114.48" from="-319" to="618" type="td_0" departLane="best" departSpeed="max" departPos="random"/>
    <trip id="160" depart="115.20" from="517" to="642" type="td_0" departLane="best" departSpeed="max" departPos="random"/>
    <trip id="161" depart="115.92" from="38" to="597" type="td_0" departLane="best" departSpeed="max" departPos="random"/>
    <trip id="162" depart="116.64" from="-117" to="383" type="td_0" departLane="best" departSpeed="max" departPos="random"/>
    <trip id="163" depart="117.36" from="-517" to="618" type="td_0" departLane="best" departSpeed="max" departPos="random"/>
    <trip id="164" depart="118.08" from="379" to="589" type="td_0" departLane="best" departSpeed="max" departPos="random"/>
    <trip id="165" depart="118.80" from="38" to="-381" type="td_0" departLane="best" departSpeed="max" departPos="random"/>
    <trip id="166" depart="119.52" from="361" to="-210" type="td_0" departLane="best" departSpeed="max" departPos="random"/>
    <trip id="167" depart="120.24" from="523" to="588" type="td_0" departLane="best" departSpeed="max" departPos="random"/>
    <trip id="168" depart="120.96" from="-344" to="569" type="td_0" departLane="best" departSpeed="max" departPos="random"/>
    <trip id="169" depart="121.68" from="-612" to="-505" type="td_0" departLane="best" departSpeed="max" departPos="random"/>
    <trip id="170" depart="122.40" from="365" to="-356" type="td_0" departLane="best" departSpeed="max" departPos="random"/>
    <trip id="171" depart="123.12" from="-117" to="-338" type="td_0" departLane="best" departSpeed="max" departPos="random"/>
    <trip id="172" depart="123.84" from="-505" to="589" type="td_0" departLane="best" departSpeed="max" departPos="random"/>
    <trip id="173" depart="124.56" from="613" to="-383" type="td_0" departLane="best" departSpeed="max" departPos="random"/>
    <trip id="174" depart="125.28" from="15" to="-608" type="td_0" departLane="best" departSpeed="max" departPos="random"/>
    <trip id="175" depart="126.00" from="64" to="138" type="td_0" departLane="best" departSpeed="max" departPos="random"/>
    <trip id="176" depart="126.72" from="592" to="-210" type="td_0" departLane="best" departSpeed="max" departPos="random"/>
    <trip id="177" depart="127.44" from="614" to="-333" type="td_0" departLane="best" departSpeed="max" departPos="random"/>
    <trip id="178" depart="128.16" from="613" to="-381" type="td_0" departLane="best" departSpeed="max" departPos="random"/>
    <trip id="179" depart="128.88" from="-19" to="-7" type="td_0" departLane="best" departSpeed="max" departPos="random"/>
    <trip id="180" depart="129.60" from="333" to="-517" type="td_0" departLane="best" departSpeed="max" departPos="random"/>
    <trip id="181" depart="130.32" from="126" to="126" type="td_0" departLane="best" departSpeed="max" departPos="random"/>
    <trip id="182" depart="131.04" from="-577" to="25" type="td_0" departLane="best" departSpeed="max" departPos="random"/>
    <trip id="183" depart="131.76" from="-361" to="365" type="td_0" departLane="best" departSpeed="max" departPos="random"/>
    <trip id="184" depart="132.48" from="-11" to="614" type="td_0" departLane="best" departSpeed="max" departPos="random"/>
    <trip id="185" depart="133.20" from="-7" to="38" type="td_0" departLane="best" departSpeed="max" departPos="random"/>
    <trip id="186" depart="133.92" from="336" to="348" type="td_0" departLane="best" departSpeed="max" departPos="random"/>
    <trip id="187" depart="134.64" from="-569" to="-13" type="td_0" departLane="best" departSpeed="max" departPos="random"/>
    <trip id="188" depart="135.36" from="210" to="-535" type="td_0" departLane="best" departSpeed="max" departPos="random"/>
    <trip id="189" depart="136.08" from="-496" to="585" type="td_0" departLane="best" departSpeed="max" departPos="random"/>
    <trip id="190" depart="136.80" from="332" to="-505" type="td_0" departLane="best" departSpeed="max" departPos="random"/>
    <trip id="191" depart="137.52" from="-496" to="-613" type="td_0" departLane="best" departSpeed="max" departPos="random"/>
    <trip id="192" depart="138.24" from="-585" to="-504" type="td_0" departLane="best" departSpeed="max" departPos="random"/>
    <trip id="193" depart="138.96" from="-25" to="-614" type="td_0" departLane="best" departSpeed="max" departPos="random"/>
    <trip id="194" depart="139.68" from="592" to="348" type="td_0" departLane="best" departSpeed="max" departPos="random"/>
    <trip id="195" depart="140.40" from="579" to="326" type="td_0" departLane="best" departSpeed="max" departPos="random"/>
    <trip id="196" depart="141.12" from="-492" to="17" type="td_0" departLane="best" departSpeed="max" departPos="random"/>
    <trip id="197" depart="141.84" from="-11" to="-492" type="td_0" departLane="best" departSpeed="max" departPos="random"/>
    <trip id="198" depart="142.56" from="-597" to="3" type="td_0" departLane="best" departSpeed="max" departPos="random"/>
    <trip id="199" depart="143.28" from="19" to="117" type="td_0" departLane="best" departSpeed="max" departPos="random"/>
    <trip id="200" depart="144.00" from="-601" to="-348" type="td_0" departLane="best" departSpeed="max" departPos="random"/>
    <trip id="201" depart="144.72" from="-614" to="612" type="td_0" departLane="best" departSpeed="max" departPos="random"/>
    <trip id="202" depart="145.44" from="365" to="-332" type="td_0" departLane="best" departSpeed="max" departPos="random"/>
    <trip id="203" depart="146.16" from="-138" to="128" type="td_0" departLane="best" departSpeed="max" departPos="random"/>
    <trip id="204" depart="146.88" from="138" to="-570" type="td_0" departLane="best" departSpeed="max" departPos="random"/>
    <trip id="205" depart="147.60" from="381" to="492" type="td_0" departLane="best" departSpeed="max" departPos="random"/>
    <trip id="206" depart="148.32" from="25" to="-356" type="td_0" departLane="best" departSpeed="max" departPos="random"/>
    <trip id="207" depart="149.04" from="-336" to="-119" type="td_0" departLane="best" departSpeed="max" departPos="random"/>
    <trip id="208" depart="149.76" from="-356" to="119" type="td_0" departLane="best" departSpeed="max" departPos="random"/>
    <trip id="209" depart="150.48" from="504" to="-13" type="td_0" departLane="best" departSpeed="max" departPos="random"/>
    <trip id="210" depart="151.20" from="-589" to="332" type="td_0" departLane="best" departSpeed="max" departPos="random"/>
    <trip id="211" depart="151.92" from="-333" to="361" type="td_0" departLane="best" departSpeed="max" departPos="random"/>
    <trip id="212" depart="152.64" from="-621" to="-365" type="td_0" departLane="best" departSpeed="max" departPos="random"/>
    <trip id="213" depart="153.36" from="19" to="-116" type="td_0" departLane="best" departSpeed="max" departPos="random"/>
    <trip id="214" depart="154.08" from="338" to="505" type="td_0" departLane="best" departSpeed="max" departPos="random"/>
    <trip id="215" depart="154.80" from="-17" to="-64" type="td_0" departLane="best" departSpeed="max" departPos="random"/>
    <trip id="216" depart="155.52" from="-330" to="625" type="td_0" departLane="best" departSpeed="max" departPos="random"/>
    <trip id="217" depart="156.24" from="-639" to="-126" type="td_0" departLane="best" departSpeed="max" departPos="random"/>
    <trip id="218" depart="156.96" from="-361" to="585" type="td_0" departLane="best" departSpeed="max" departPos="random"/>
    <trip id="219" depart="157.68" from="-612" to="533" type="td_0" departLane="best" departSpeed="max" departPos="random"/>
    <trip id="220" depart="158.40" from="210" to="7" type="td_0" departLane="best" departSpeed="max" departPos="random"/>
    <trip id="221" depart="159.12" from="125" to="623" type="td_0" departLane="best" departSpeed="max" departPos="random"/>
    <trip id="222" depart="159.84" from="570" to="326" type="td_0" departLane="best" departSpeed="max" departPos="random"/>
    <trip id="223" depart="160.56" from="332" to="126" type="td_0" departLane="best" departSpeed="max" departPos="random"/>
    <trip id="224" depart="161.28" from="383" to="17" type="td_0" departLane="best" departSpeed="max" departPos="random"/>
    <trip id="225" depart="162.00" from="577" to="383" type="td_0" departLane="best" departSpeed="max" departPos="random"/>
    <trip id="226" depart="162.72" from="-614" to="-38" type="td_0" departLane="best" departSpeed="max" departPos="random"/>
    <trip id="227" depart="163.44" from="-356" to="333" type="td_0" departLane="best" departSpeed="max" departPos="random"/>
    <trip id="228" depart="164.16" from="348" to="13" type="td_0" departLane="best" departSpeed="max" departPos="random"/>
    <trip id="229" depart="164.88" from="13" to="-383" type="td_0" departLane="best" departSpeed="max" departPos="random"/>
    <trip id="230" depart="165.60" from="-13" to="-492" type="td_0" departLane="best" departSpeed="max" departPos="random"/>
    <trip id="231" depart="166.32" from="-379" to="-523" type="td_0" departLane="best" departSpeed="max" departPos="random"/>
    <trip id="232" depart="167.04" from="-7" to="-313" type="td_0" departLane="best" departSpeed="max" departPos="random"/>
    <trip id="233" depart="167.76" from="-348" to="356" type="td_0" departLane="best" departSpeed="max" departPos="random"/>
    <trip id="234" depart="168.48" from="325" to="-128" type="td_0" departLane="best" departSpeed="max" departPos="random"/>
    <trip id="235" depart="169.20" from="-588" to="15" type="td_0" departLane="best" departSpeed="max" departPos="random"/>
    <trip id="236" depart="169.92" from="-589" to="-348" type="td_0" departLane="best" departSpeed="max" departPos="random"/>
    <trip id="237" depart="170.64" from="-589" to="612" type="td_0" departLane="best" departSpeed="max" departPos="random"/>